Title Card Required
 OpenBabel05152619573D

 12 11  0  0  0  0  0  0  0  0999 V2000
   -1.4892   -0.1527   -0.4686 C   0  0  0  0  0  0  0  0  0  0  0  0
   -2.6583   -0.5009    0.0487 F   0  0  0  0  0  0  0  0  0  0  0  0
   -1.6469    0.9543   -1.1866 F   0  0  0  0  0  0  0  0  0  0  0  0
   -1.0677   -1.1262   -1.2725 F   0  0  0  0  0  0  0  0  0  0  0  0
   -0.4460    0.0824    0.6552 C   0  0  0  0  0  0  0  0  0  0  0  0
   -0.9440    1.0223    1.4780 F   0  0  0  0  0  0  0  0  0  0  0  0
   -0.3303   -1.0701    1.3361 F   0  0  0  0  0  0  0  0  0  0  0  0
    0.8925    0.5361    0.1417 C   0  0  0  0  0  0  0  0  0  0  0  0
    0.9723    1.8397   -0.1209 F   0  0  0  0  0  0  0  0  0  0  0  0
    1.9483   -0.2307   -0.0879 C   0  0  0  0  0  0  0  0  0  0  0  0
    3.0747    0.2423   -0.5428 F   0  0  0  0  0  0  0  0  0  0  0  0
    1.9965   -1.5181    0.0997 F   0  0  0  0  0  0  0  0  0  0  0  0
  1  2  1  0  0  0  0
  1  3  1  0  0  0  0
  1  4  1  0  0  0  0
  1  5  1  0  0  0  0
  5  6  1  0  0  0  0
  5  7  1  0  0  0  0
  5  8  1  0  0  0  0
  8  9  1  0  0  0  0
  8 10  2  0  0  0  0
 10 11  1  0  0  0  0
 10 12  1  0  0  0  0
M  END
$$$$
