/home/yang/projects/t99_calc/v1/qchem_data/combined/log_fchk/1_butane.log
 OpenBabel05152619573D
Gaussian applications/g16/g16/g16 # opt wb97xd/6-311+g(2d,2p) geom=connectivity
 14 13  0  0  0  0  0  0  0  0999 V2000
    1.7832   -0.0767   -0.0482 C   0  0  0  0  0  0  0  0  0  0  0  0
    2.0041   -0.5002    1.1907 F   0  0  0  0  0  0  0  0  0  0  0  0
    1.9807   -1.0778   -0.8921 F   0  0  0  0  0  0  0  0  0  0  0  0
    0.3392    0.4845   -0.1774 C   0  0  0  0  0  0  0  0  0  0  0  0
    0.2827    1.6315    0.5082 F   0  0  0  0  0  0  0  0  0  0  0  0
    0.1135    0.7439   -1.4777 F   0  0  0  0  0  0  0  0  0  0  0  0
   -0.7836   -0.4642    0.3291 C   0  0  0  0  0  0  0  0  0  0  0  0
   -0.7765   -0.4736    1.6733 F   0  0  0  0  0  0  0  0  0  0  0  0
   -0.5404   -1.7016   -0.1110 F   0  0  0  0  0  0  0  0  0  0  0  0
   -2.1835   -0.0321   -0.1791 C   0  0  0  0  0  0  0  0  0  0  0  0
   -2.8134   -0.6711   -0.9598 O   0  0  0  0  0  0  0  0  0  0  0  0
   -2.5504    1.1154    0.3801 O   0  0  0  0  0  0  0  0  0  0  0  0
   -3.4198    1.3510    0.0350 H   0  0  0  0  0  0  0  0  0  0  0  0
    2.6469    0.8918   -0.3297 F   0  0  0  0  0  0  0  0  0  0  0  0
  1  2  1  0  0  0  0
  3  1  1  0  0  0  0
  4  1  1  0  0  0  0
  4  7  1  0  0  0  0
  4  5  1  0  0  0  0
  6  4  1  0  0  0  0
  7  8  1  0  0  0  0
  9  7  1  0  0  0  0
 10  7  1  0  0  0  0
 10 12  1  0  0  0  0
 11 10  2  0  0  0  0
 13 12  1  0  0  0  0
 14  1  1  0  0  0  0
M  END
>  <program>
Gaussian 16, Revision A.03

>  <basis>
6-311+G(2d,2p) (5D, 7F)

>  <File Format>
g03

$$$$
