/home/yang/projects/t99_calc/v1/qchem_data/combined/log_fchk/1_hexane.log
 OpenBabel05152619573D
Gaussian applications/g16/g16/g16 # opt wb97xd/6-311+g(2d,2p) geom=connectivity
 20 19  0  0  0  0  0  0  0  0999 V2000
    0.4430   -0.3940    0.0914 C   0  0  0  0  0  0  0  0  0  0  0  0
    0.4212   -1.0234    1.2736 F   0  0  0  0  0  0  0  0  0  0  0  0
    0.5790   -1.3016   -0.8835 F   0  0  0  0  0  0  0  0  0  0  0  0
   -0.9122    0.3535   -0.1097 C   0  0  0  0  0  0  0  0  0  0  0  0
   -0.8914    1.4955    0.5888 F   0  0  0  0  0  0  0  0  0  0  0  0
   -1.0503    0.6459   -1.4143 F   0  0  0  0  0  0  0  0  0  0  0  0
   -2.1590   -0.4750    0.3230 C   0  0  0  0  0  0  0  0  0  0  0  0
   -2.2621   -0.4556    1.6624 F   0  0  0  0  0  0  0  0  0  0  0  0
   -2.0058   -1.7382   -0.0821 F   0  0  0  0  0  0  0  0  0  0  0  0
   -3.4646    0.0826   -0.3017 C   0  0  0  0  0  0  0  0  0  0  0  0
   -4.1025   -0.5146   -1.1085 O   0  0  0  0  0  0  0  0  0  0  0  0
   -3.7452    1.2816    0.1965 O   0  0  0  0  0  0  0  0  0  0  0  0
   -4.5575    1.5951   -0.2185 H   0  0  0  0  0  0  0  0  0  0  0  0
    1.6781    0.5595    0.0705 C   0  0  0  0  0  0  0  0  0  0  0  0
    3.0386   -0.1694   -0.1376 C   0  0  0  0  0  0  0  0  0  0  0  0
    1.7413    1.2106    1.2366 F   0  0  0  0  0  0  0  0  0  0  0  0
    1.5407    1.4489   -0.9233 F   0  0  0  0  0  0  0  0  0  0  0  0
    3.1592   -1.1816    0.7128 F   0  0  0  0  0  0  0  0  0  0  0  0
    3.1464   -0.6257   -1.3763 F   0  0  0  0  0  0  0  0  0  0  0  0
    4.0212    0.6948    0.0828 F   0  0  0  0  0  0  0  0  0  0  0  0
  1  2  1  0  0  0  0
  3  1  1  0  0  0  0
  4  1  1  0  0  0  0
  4  7  1  0  0  0  0
  4  5  1  0  0  0  0
  6  4  1  0  0  0  0
  7  8  1  0  0  0  0
  9  7  1  0  0  0  0
 10 12  1  0  0  0  0
 10  7  1  0  0  0  0
 11 10  2  0  0  0  0
 13 12  1  0  0  0  0
 14  1  1  0  0  0  0
 14 16  1  0  0  0  0
 15 14  1  0  0  0  0
 15 20  1  0  0  0  0
 15 18  1  0  0  0  0
 17 14  1  0  0  0  0
 19 15  1  0  0  0  0
M  END
>  <program>
Gaussian 16, Revision A.03

>  <basis>
6-311+G(2d,2p) (5D, 7F)

>  <File Format>
g03

$$$$
