Title Card Required
 OpenBabel05152619573D

 23 22  0  0  0  0  0  0  0  0999 V2000
    0.2374    0.4963    0.0960 C   0  0  0  0  0  0  0  0  0  0  0  0
    0.2809    1.0398    1.3190 F   0  0  0  0  0  0  0  0  0  0  0  0
    0.1810    1.4726   -0.8178 F   0  0  0  0  0  0  0  0  0  0  0  0
    1.5434   -0.3269   -0.1354 C   0  0  0  0  0  0  0  0  0  0  0  0
    1.4334   -1.5079    0.4858 F   0  0  0  0  0  0  0  0  0  0  0  0
    1.6879   -0.5417   -1.4541 F   0  0  0  0  0  0  0  0  0  0  0  0
    2.8339    0.3860    0.3699 C   0  0  0  0  0  0  0  0  0  0  0  0
    2.9120    0.2695    1.7061 F   0  0  0  0  0  0  0  0  0  0  0  0
    2.7708    1.6810    0.0503 F   0  0  0  0  0  0  0  0  0  0  0  0
    4.1111   -0.2139   -0.2741 C   0  0  0  0  0  0  0  0  0  0  0  0
    4.8029    0.3934   -1.0271 O   0  0  0  0  0  0  0  0  0  0  0  0
    4.3011   -1.4612    0.1416 O   0  0  0  0  0  0  0  0  0  0  0  0
    5.0983   -1.7995   -0.2829 H   0  0  0  0  0  0  0  0  0  0  0  0
   -1.0583   -0.3717   -0.0099 C   0  0  0  0  0  0  0  0  0  0  0  0
   -1.1890   -1.0809    1.1186 F   0  0  0  0  0  0  0  0  0  0  0  0
   -0.9384   -1.2164   -1.0429 F   0  0  0  0  0  0  0  0  0  0  0  0
   -2.3483    0.4798   -0.2260 C   0  0  0  0  0  0  0  0  0  0  0  0
   -2.3904    0.8826   -1.5001 F   0  0  0  0  0  0  0  0  0  0  0  0
   -2.3178    1.5539    0.5749 F   0  0  0  0  0  0  0  0  0  0  0  0
   -3.6703   -0.2887    0.0708 C   0  0  0  0  0  0  0  0  0  0  0  0
   -3.6840   -1.4544   -0.5646 F   0  0  0  0  0  0  0  0  0  0  0  0
   -3.8130   -0.4997    1.3706 F   0  0  0  0  0  0  0  0  0  0  0  0
   -4.6916    0.4433   -0.3549 F   0  0  0  0  0  0  0  0  0  0  0  0
  1  2  1  0  0  0  0
  1  3  1  0  0  0  0
  1  4  1  0  0  0  0
  1 14  1  0  0  0  0
  4  5  1  0  0  0  0
  4  6  1  0  0  0  0
  4  7  1  0  0  0  0
  7  8  1  0  0  0  0
  7  9  1  0  0  0  0
  7 10  1  0  0  0  0
 10 11  2  0  0  0  0
 10 12  1  0  0  0  0
 12 13  1  0  0  0  0
 14 15  1  0  0  0  0
 14 16  1  0  0  0  0
 14 17  1  0  0  0  0
 17 18  1  0  0  0  0
 17 19  1  0  0  0  0
 17 20  1  0  0  0  0
 20 21  1  0  0  0  0
 20 22  1  0  0  0  0
 20 23  1  0  0  0  0
M  END
$$$$
