/home/yang/projects/t99_calc/v1/qchem_data/combined/log_fchk/1_octane_c8_rad.log
 OpenBabel05152619573D
Gaussian 16 # opt freq uwb97xd/6-311+g(2d,2p) geom=connectivity
 25 24  0  0  0  0  0  0  0  0999 V2000
   -2.1976    0.2790   -0.1365 C   0  0  0  0  0  0  0  0  0  0  0  0
   -2.3071    0.3757   -1.4698 F   0  0  0  0  0  0  0  0  0  0  0  0
   -2.1601    1.5136    0.3843 F   0  0  0  0  0  0  0  0  0  0  0  0
   -3.4802   -0.4326    0.4035 C   0  0  0  0  0  0  0  0  0  0  0  0
   -3.3936   -1.7442    0.1304 F   0  0  0  0  0  0  0  0  0  0  0  0
   -3.5392   -0.2528    1.7310 F   0  0  0  0  0  0  0  0  0  0  0  0
   -4.7775    0.0823   -0.1946 C   0  0  0  0  0  3  0  0  0  0  0  0
   -5.0218   -0.2763   -1.4320 F   0  0  0  0  0  0  0  0  0  0  0  0
   -5.0267    1.3553    0.0124 F   0  0  0  0  0  0  0  0  0  0  0  0
   -0.8660   -0.4661    0.1985 C   0  0  0  0  0  0  0  0  0  0  0  0
    0.3959    0.4452    0.0506 C   0  0  0  0  0  0  0  0  0  0  0  0
   -0.7486   -1.5110   -0.6309 F   0  0  0  0  0  0  0  0  0  0  0  0
   -0.9197   -0.9117    1.4593 F   0  0  0  0  0  0  0  0  0  0  0  0
    0.2678    1.1923   -1.0533 F   0  0  0  0  0  0  0  0  0  0  0  0
    0.4649    1.2490    1.1189 F   0  0  0  0  0  0  0  0  0  0  0  0
    1.7254   -0.3700   -0.0597 C   0  0  0  0  0  0  0  0  0  0  0  0
    2.9933    0.4883    0.2432 C   0  0  0  0  0  0  0  0  0  0  0  0
    2.8793    1.6836   -0.3525 F   0  0  0  0  0  0  0  0  0  0  0  0
    3.0890    0.6634    1.5651 F   0  0  0  0  0  0  0  0  0  0  0  0
    1.6920   -1.3871    0.8109 F   0  0  0  0  0  0  0  0  0  0  0  0
    1.8192   -0.8623   -1.3014 F   0  0  0  0  0  0  0  0  0  0  0  0
    4.3247   -0.1548   -0.2468 C   0  0  0  0  0  0  0  0  0  0  0  0
    4.4169   -1.4110    0.1726 F   0  0  0  0  0  0  0  0  0  0  0  0
    4.4029   -0.1300   -1.5687 F   0  0  0  0  0  0  0  0  0  0  0  0
    5.3394    0.5393    0.2517 F   0  0  0  0  0  0  0  0  0  0  0  0
  1 10  1  0  0  0  0
  1  3  1  0  0  0  0
  1  4  1  0  0  0  0
  2  1  1  0  0  0  0
  4  6  1  0  0  0  0
  5  4  1  0  0  0  0
  7  9  1  0  0  0  0
  7  4  1  0  0  0  0
  8  7  1  0  0  0  0
 10 13  1  0  0  0  0
 11 10  1  0  0  0  0
 11 15  1  0  0  0  0
 12 10  1  0  0  0  0
 14 11  1  0  0  0  0
 16 11  1  0  0  0  0
 16 17  1  0  0  0  0
 16 20  1  0  0  0  0
 17 19  1  0  0  0  0
 18 17  1  0  0  0  0
 21 16  1  0  0  0  0
 22 23  1  0  0  0  0
 22 17  1  0  0  0  0
 22 25  1  0  0  0  0
 24 22  1  0  0  0  0
M  END
>  <program>
Gaussian 16, Revision A.03

>  <basis>
6-311+G(2d,2p) (5D, 7F)

>  <File Format>
g03

$$$$
