/home/yang/projects/t99_calc/v1/qchem_data/combined/log_fchk/1_octane_c7_carbene.log
 OpenBabel05152619573D
Gaussian 16 # opt freq rwb97xd/6-311+g(2d,2p) geom=connectivity scf=xqc temperat
 21 20  0  0  0  0  0  0  0  0999 V2000
    1.7819   -0.3235   -0.1652 C   0  0  0  0  0  0  0  0  0  0  0  0
    1.8955   -0.7473   -1.4375 F   0  0  0  0  0  0  0  0  0  0  0  0
    1.6991   -1.3889    0.6448 F   0  0  0  0  0  0  0  0  0  0  0  0
    3.0796    0.4535    0.1720 C   0  0  0  0  0  0  0  0  0  0  0  0
    3.0303    1.6582   -0.4101 F   0  0  0  0  0  0  0  0  0  0  0  0
    3.1995    0.6049    1.5075 F   0  0  0  0  0  0  0  0  0  0  0  0
    4.4504   -0.1913   -0.2301 C   0  0  0  0  0  2  0  0  0  0  0  0
    4.3043   -1.4705   -0.1829 F   0  0  0  0  0  0  0  0  0  0  0  0
    0.4732    0.5183   -0.0362 C   0  0  0  0  0  0  0  0  0  0  0  0
   -0.8167   -0.3607    0.0392 C   0  0  0  0  0  0  0  0  0  0  0  0
    0.3846    1.3317   -1.0956 F   0  0  0  0  0  0  0  0  0  0  0  0
    0.5475    1.2562    1.0791 F   0  0  0  0  0  0  0  0  0  0  0  0
   -0.7166   -1.3618   -0.8456 F   0  0  0  0  0  0  0  0  0  0  0  0
   -0.9074   -0.8769    1.2715 F   0  0  0  0  0  0  0  0  0  0  0  0
   -2.1203    0.4380   -0.2741 C   0  0  0  0  0  0  0  0  0  0  0  0
   -3.4258   -0.2769    0.1850 C   0  0  0  0  0  0  0  0  0  0  0  0
   -3.4473   -1.5307   -0.2512 F   0  0  0  0  0  0  0  0  0  0  0  0
   -3.5274   -0.2732    1.5055 F   0  0  0  0  0  0  0  0  0  0  0  0
   -4.4656    0.3716   -0.3227 F   0  0  0  0  0  0  0  0  0  0  0  0
   -2.0750    1.6290    0.3387 F   0  0  0  0  0  0  0  0  0  0  0  0
   -2.2032    0.6261   -1.5951 F   0  0  0  0  0  0  0  0  0  0  0  0
  1  9  1  0  0  0  0
  1  4  1  0  0  0  0
  1  3  1  0  0  0  0
  2  1  1  0  0  0  0
  4  6  1  0  0  0  0
  5  4  1  0  0  0  0
  7  8  1  0  0  0  0
  7  4  1  0  0  0  0
  9 10  1  0  0  0  0
  9 12  1  0  0  0  0
 10 14  1  0  0  0  0
 11  9  1  0  0  0  0
 13 10  1  0  0  0  0
 15 10  1  0  0  0  0
 15 16  1  0  0  0  0
 15 20  1  0  0  0  0
 16 18  1  0  0  0  0
 17 16  1  0  0  0  0
 19 16  1  0  0  0  0
 21 15  1  0  0  0  0
M  END
>  <program>
Gaussian 16, Revision A.03

>  <basis>
6-311+G(2d,2p) (5D, 7F)

>  <File Format>
g03

$$$$
