Title Card Required
 OpenBabel05152619573D

 26 25  0  0  0  0  0  0  0  0999 V2000
    0.8789    0.4418    0.1808 C   0  0  0  0  0  0  0  0  0  0  0  0
    0.9498    0.8612    1.4503 F   0  0  0  0  0  0  0  0  0  0  0  0
    0.7587    1.5021   -0.6275 F   0  0  0  0  0  0  0  0  0  0  0  0
    2.2014   -0.3077   -0.1756 C   0  0  0  0  0  0  0  0  0  0  0  0
    2.1501   -1.5494    0.3229 F   0  0  0  0  0  0  0  0  0  0  0  0
    2.3074   -0.3809   -1.5132 F   0  0  0  0  0  0  0  0  0  0  0  0
    3.4851    0.3939    0.3613 C   0  0  0  0  0  0  0  0  0  0  0  0
    3.6099    0.1466    1.6759 F   0  0  0  0  0  0  0  0  0  0  0  0
    3.3720    1.7116    0.1764 F   0  0  0  0  0  0  0  0  0  0  0  0
    4.7585   -0.0944   -0.3774 C   0  0  0  0  0  0  0  0  0  0  0  0
    5.4041    0.6077   -1.0877 O   0  0  0  0  0  0  0  0  0  0  0  0
    5.0034   -1.3686   -0.0923 O   0  0  0  0  0  0  0  0  0  0  0  0
    5.7964   -1.6352   -0.5717 H   0  0  0  0  0  0  0  0  0  0  0  0
   -0.3913   -0.4572    0.0285 C   0  0  0  0  0  0  0  0  0  0  0  0
   -1.7148    0.3703   -0.0587 C   0  0  0  0  0  0  0  0  0  0  0  0
   -0.4605   -1.2782    1.0837 F   0  0  0  0  0  0  0  0  0  0  0  0
   -0.2776   -1.1872   -1.0887 F   0  0  0  0  0  0  0  0  0  0  0  0
   -1.6660    1.3739    0.8268 F   0  0  0  0  0  0  0  0  0  0  0  0
   -1.8153    0.8821   -1.2920 F   0  0  0  0  0  0  0  0  0  0  0  0
   -2.9875   -0.4817    0.2419 C   0  0  0  0  0  0  0  0  0  0  0  0
   -4.3171    0.1794   -0.2290 C   0  0  0  0  0  0  0  0  0  0  0  0
   -4.3949    1.4307    0.2076 F   0  0  0  0  0  0  0  0  0  0  0  0
   -4.4064    0.1725   -1.5504 F   0  0  0  0  0  0  0  0  0  0  0  0
   -5.3340   -0.5123    0.2686 F   0  0  0  0  0  0  0  0  0  0  0  0
   -2.8885   -1.6695   -0.3712 F   0  0  0  0  0  0  0  0  0  0  0  0
   -3.0753   -0.6747    1.5619 F   0  0  0  0  0  0  0  0  0  0  0  0
  1  2  1  0  0  0  0
  1  3  1  0  0  0  0
  1  4  1  0  0  0  0
  1 14  1  0  0  0  0
  4  5  1  0  0  0  0
  4  6  1  0  0  0  0
  4  7  1  0  0  0  0
  7  8  1  0  0  0  0
  7  9  1  0  0  0  0
  7 10  1  0  0  0  0
 10 11  2  0  0  0  0
 10 12  1  0  0  0  0
 12 13  1  0  0  0  0
 14 15  1  0  0  0  0
 14 16  1  0  0  0  0
 14 17  1  0  0  0  0
 15 18  1  0  0  0  0
 15 19  1  0  0  0  0
 15 20  1  0  0  0  0
 20 21  1  0  0  0  0
 20 25  1  0  0  0  0
 20 26  1  0  0  0  0
 21 22  1  0  0  0  0
 21 23  1  0  0  0  0
 21 24  1  0  0  0  0
M  END
$$$$
