Title Card Required
 OpenBabel05152619573D

 17 16  0  0  0  0  0  0  0  0999 V2000
   -1.0712    0.5349   -0.0262 C   0  0  0  0  0  0  0  0  0  0  0  0
   -1.0680    1.2524    1.1060 F   0  0  0  0  0  0  0  0  0  0  0  0
   -1.1131    1.3651   -1.0730 F   0  0  0  0  0  0  0  0  0  0  0  0
    0.2345   -0.3115   -0.1042 C   0  0  0  0  0  0  0  0  0  0  0  0
    0.1119   -1.3816    0.6919 F   0  0  0  0  0  0  0  0  0  0  0  0
    0.3928   -0.7339   -1.3706 F   0  0  0  0  0  0  0  0  0  0  0  0
    1.5205    0.4685    0.3006 C   0  0  0  0  0  0  0  0  0  0  0  0
    1.5728    0.5712    1.6394 F   0  0  0  0  0  0  0  0  0  0  0  0
    1.4714    1.6943   -0.2264 F   0  0  0  0  0  0  0  0  0  0  0  0
    2.8055   -0.2322   -0.2127 C   0  0  0  0  0  0  0  0  0  0  0  0
    3.5118    0.2400   -1.0449 O   0  0  0  0  0  0  0  0  0  0  0  0
    2.9837   -1.3931    0.4081 O   0  0  0  0  0  0  0  0  0  0  0  0
    3.7865   -1.7982    0.0592 H   0  0  0  0  0  0  0  0  0  0  0  0
   -2.3788   -0.3108   -0.0421 C   0  0  0  0  0  0  0  0  0  0  0  0
   -3.4133    0.5061   -0.1935 F   0  0  0  0  0  0  0  0  0  0  0  0
   -2.5270   -0.9753    1.0942 F   0  0  0  0  0  0  0  0  0  0  0  0
   -2.3623   -1.1730   -1.0522 F   0  0  0  0  0  0  0  0  0  0  0  0
  1  2  1  0  0  0  0
  1  3  1  0  0  0  0
  1  4  1  0  0  0  0
  1 14  1  0  0  0  0
  4  5  1  0  0  0  0
  4  6  1  0  0  0  0
  4  7  1  0  0  0  0
  7  8  1  0  0  0  0
  7  9  1  0  0  0  0
  7 10  1  0  0  0  0
 10 11  2  0  0  0  0
 10 12  1  0  0  0  0
 12 13  1  0  0  0  0
 14 15  1  0  0  0  0
 14 16  1  0  0  0  0
 14 17  1  0  0  0  0
M  END
$$$$
