/home/yang/projects/t99_calc/v1/qchem_data/combined/log_fchk/1_propyl.log
 OpenBabel05152619573D
Gaussian applications/g16/g16/g16 # opt wb97xd/6-311+g(2d) geom=connectivity fre
 10  9  0  0  0  0  0  0  0  0999 V2000
   -1.0284   -0.3815   -0.0002 C   0  0  0  0  0  0  0  0  0  0  0  0
   -0.9383   -1.1499    1.0799 F   0  0  0  0  0  0  0  0  0  0  0  0
   -0.9385   -1.1491   -1.0807 F   0  0  0  0  0  0  0  0  0  0  0  0
   -0.0371    1.4314    1.0966 F   0  0  0  0  0  0  0  0  0  0  0  0
   -2.2078    0.2236    0.0002 F   0  0  0  0  0  0  0  0  0  0  0  0
    1.8764   -0.5287   -1.0896 F   0  0  0  0  0  0  0  0  0  0  0  0
    1.8762   -0.5295    1.0894 F   0  0  0  0  0  0  0  0  0  0  0  0
    0.1138    0.6729    0.0002 C   0  0  0  0  0  0  0  0  0  0  0  0
    1.5237    0.1136    0.0001 C   0  0  0  0  0  3  0  0  0  0  0  0
   -0.0371    1.4321   -1.0958 F   0  0  0  0  0  0  0  0  0  0  0  0
  1  8  1  0  0  0  0
  1  5  1  0  0  0  0
  1  2  1  0  0  0  0
  3  1  1  0  0  0  0
  6  9  1  0  0  0  0
  8  4  1  0  0  0  0
  9  8  1  0  0  0  0
  9  7  1  0  0  0  0
 10  8  1  0  0  0  0
M  END
>  <program>
Gaussian 16, Revision A.03

>  <basis>
6-311+G(2d) (5D, 7F)

>  <File Format>
g03

$$$$
