/home/yang/projects/t99_calc/v1/qchem_data/combined/log_fchk/1_propane.log
 OpenBabel05152619573D
Gaussian applications/g16/g16/g16 # opt wb97xd/6-311+g(2d,2p) geom=connectivity
 11 10  0  0  0  0  0  0  0  0999 V2000
   -1.0806   -0.2744   -0.2009 C   0  0  0  0  0  0  0  0  0  0  0  0
   -1.1123   -1.4956    0.3180 F   0  0  0  0  0  0  0  0  0  0  0  0
   -1.0180   -0.3746   -1.5264 F   0  0  0  0  0  0  0  0  0  0  0  0
    0.1512    0.5105    0.3202 C   0  0  0  0  0  0  0  0  0  0  0  0
    0.1005    0.5226    1.6638 F   0  0  0  0  0  0  0  0  0  0  0  0
    0.0565    1.7637   -0.1286 F   0  0  0  0  0  0  0  0  0  0  0  0
    1.4968   -0.0878   -0.1581 C   0  0  0  0  0  0  0  0  0  0  0  0
    2.1553    0.4093   -1.0155 O   0  0  0  0  0  0  0  0  0  0  0  0
    1.7817   -1.2012    0.5080 O   0  0  0  0  0  0  0  0  0  0  0  0
    2.6176   -1.5439    0.1706 H   0  0  0  0  0  0  0  0  0  0  0  0
   -2.1955    0.3605    0.1311 F   0  0  0  0  0  0  0  0  0  0  0  0
  1 11  1  0  0  0  0
  1  2  1  0  0  0  0
  1  4  1  0  0  0  0
  3  1  1  0  0  0  0
  4  5  1  0  0  0  0
  6  4  1  0  0  0  0
  7  4  1  0  0  0  0
  7  9  1  0  0  0  0
  8  7  2  0  0  0  0
 10  9  1  0  0  0  0
M  END
>  <program>
Gaussian 16, Revision A.03

>  <basis>
6-311+G(2d,2p) (5D, 7F)

>  <File Format>
g03

$$$$
