Title Card Required
 OpenBabel05152619573D

 38 37  0  0  0  0  0  0  0  0999 V2000
    4.7631   -0.1588   -0.3296 C   0  0  0  0  0  0  0  0  0  0  0  0
    4.8473    0.5889   -1.4369 F   0  0  0  0  0  0  0  0  0  0  0  0
    4.6808   -1.4497   -0.6800 F   0  0  0  0  0  0  0  0  0  0  0  0
    6.0601    0.0378    0.5114 C   0  0  0  0  0  0  0  0  0  0  0  0
    5.9842    1.1964    1.1895 F   0  0  0  0  0  0  0  0  0  0  0  0
    6.1574   -0.9699    1.3960 F   0  0  0  0  0  0  0  0  0  0  0  0
    7.3758    0.0572   -0.2950 C   0  0  0  0  0  0  0  0  0  0  0  0
    7.4698    1.1843   -1.0173 F   0  0  0  0  0  0  0  0  0  0  0  0
    7.4176   -1.0003   -1.1259 F   0  0  0  0  0  0  0  0  0  0  0  0
    3.4624    0.2432    0.4387 C   0  0  0  0  0  0  0  0  0  0  0  0
    2.1673   -0.3546   -0.2025 C   0  0  0  0  0  0  0  0  0  0  0  0
    3.3690    1.5792    0.4430 F   0  0  0  0  0  0  0  0  0  0  0  0
    3.5484   -0.1943    1.7014 F   0  0  0  0  0  0  0  0  0  0  0  0
    2.2572   -0.2644   -1.5350 F   0  0  0  0  0  0  0  0  0  0  0  0
    2.0781   -1.6444    0.1460 F   0  0  0  0  0  0  0  0  0  0  0  0
    0.8672    0.3850    0.2546 C   0  0  0  0  0  0  0  0  0  0  0  0
   -0.4281   -0.4530   -0.0035 C   0  0  0  0  0  0  0  0  0  0  0  0
   -0.3325   -1.0471   -1.1993 F   0  0  0  0  0  0  0  0  0  0  0  0
   -0.5229   -1.3906    0.9474 F   0  0  0  0  0  0  0  0  0  0  0  0
    0.9491    0.6427    1.5658 F   0  0  0  0  0  0  0  0  0  0  0  0
    0.7788    1.5403   -0.4160 F   0  0  0  0  0  0  0  0  0  0  0  0
    8.2117    0.0031    0.4052 H   0  0  0  0  0  0  0  0  0  0  0  0
   -1.7265    0.4188    0.0116 C   0  0  0  0  0  0  0  0  0  0  0  0
   -1.8082    1.0772   -1.1512 F   0  0  0  0  0  0  0  0  0  0  0  0
   -1.6470    1.3033    1.0134 F   0  0  0  0  0  0  0  0  0  0  0  0
   -3.0245   -0.4317    0.2065 C   0  0  0  0  0  0  0  0  0  0  0  0
   -4.3192    0.3306   -0.2260 C   0  0  0  0  0  0  0  0  0  0  0  0
   -5.6211   -0.2955    0.3653 C   0  0  0  0  0  0  0  0  0  0  0  0
   -6.9250    0.1583   -0.3560 C   0  0  0  0  0  0  0  0  0  0  0  0
   -2.9297   -1.5487   -0.5255 F   0  0  0  0  0  0  0  0  0  0  0  0
   -3.1248   -0.7614    1.5000 F   0  0  0  0  0  0  0  0  0  0  0  0
   -4.3951    0.3129   -1.5628 F   0  0  0  0  0  0  0  0  0  0  0  0
   -4.2414    1.6015    0.1890 F   0  0  0  0  0  0  0  0  0  0  0  0
   -5.5563   -1.6314    0.2794 F   0  0  0  0  0  0  0  0  0  0  0  0
   -5.7236    0.0576    1.6506 F   0  0  0  0  0  0  0  0  0  0  0  0
   -7.0050   -0.3739   -1.5662 F   0  0  0  0  0  0  0  0  0  0  0  0
   -6.9640    1.4815   -0.4572 F   0  0  0  0  0  0  0  0  0  0  0  0
   -7.9675   -0.2482    0.3564 F   0  0  0  0  0  0  0  0  0  0  0  0
  1  2  1  0  0  0  0
  1  3  1  0  0  0  0
  1  4  1  0  0  0  0
  1 10  1  0  0  0  0
  4  5  1  0  0  0  0
  4  6  1  0  0  0  0
  4  7  1  0  0  0  0
  7  8  1  0  0  0  0
  7  9  1  0  0  0  0
  7 22  1  0  0  0  0
 10 11  1  0  0  0  0
 10 12  1  0  0  0  0
 10 13  1  0  0  0  0
 11 14  1  0  0  0  0
 11 15  1  0  0  0  0
 11 16  1  0  0  0  0
 16 17  1  0  0  0  0
 16 20  1  0  0  0  0
 16 21  1  0  0  0  0
 17 18  1  0  0  0  0
 17 19  1  0  0  0  0
 17 23  1  0  0  0  0
 23 24  1  0  0  0  0
 23 25  1  0  0  0  0
 23 26  1  0  0  0  0
 26 27  1  0  0  0  0
 26 30  1  0  0  0  0
 26 31  1  0  0  0  0
 27 28  1  0  0  0  0
 27 32  1  0  0  0  0
 27 33  1  0  0  0  0
 28 29  1  0  0  0  0
 28 34  1  0  0  0  0
 28 35  1  0  0  0  0
 29 36  1  0  0  0  0
 29 37  1  0  0  0  0
 29 38  1  0  0  0  0
M  END
$$$$
