/home/yang/projects/t99_calc/v1/qchem_data/combined/log_fchk/1H_decane.log
 OpenBabel05152619573D
Gaussian 16 # opt freq wb97xd/6-311+g(2d,2p) geom=connectivity
 32 31  0  0  0  0  0  0  0  0999 V2000
    3.4710   -0.2713   -0.2107 C   0  0  0  0  0  0  0  0  0  0  0  0
    3.5633   -0.0786   -1.5324 F   0  0  0  0  0  0  0  0  0  0  0  0
    3.3986   -1.5867    0.0346 F   0  0  0  0  0  0  0  0  0  0  0  0
    4.7584    0.2831    0.4698 C   0  0  0  0  0  0  0  0  0  0  0  0
    4.6725    1.6213    0.5700 F   0  0  0  0  0  0  0  0  0  0  0  0
    4.8490   -0.2337    1.7076 F   0  0  0  0  0  0  0  0  0  0  0  0
    6.0825   -0.0443   -0.2522 C   0  0  0  0  0  0  0  0  0  0  0  0
    6.1792    0.6486   -1.3974 F   0  0  0  0  0  0  0  0  0  0  0  0
    6.1378   -1.3596   -0.5301 F   0  0  0  0  0  0  0  0  0  0  0  0
    2.1601    0.4126    0.2968 C   0  0  0  0  0  0  0  0  0  0  0  0
    0.8754   -0.4174   -0.0296 C   0  0  0  0  0  0  0  0  0  0  0  0
    2.0588    1.6164   -0.2811 F   0  0  0  0  0  0  0  0  0  0  0  0
    2.2351    0.5685    1.6247 F   0  0  0  0  0  0  0  0  0  0  0  0
    0.9783   -0.9129   -1.2689 F   0  0  0  0  0  0  0  0  0  0  0  0
    0.7914   -1.4293    0.8432 F   0  0  0  0  0  0  0  0  0  0  0  0
   -0.4341    0.4338    0.0532 C   0  0  0  0  0  0  0  0  0  0  0  0
   -1.7212   -0.4458    0.1797 C   0  0  0  0  0  0  0  0  0  0  0  0
   -1.6139   -1.4988   -0.6401 F   0  0  0  0  0  0  0  0  0  0  0  0
   -1.8154   -0.8801    1.4425 F   0  0  0  0  0  0  0  0  0  0  0  0
   -0.3663    1.2379    1.1216 F   0  0  0  0  0  0  0  0  0  0  0  0
   -0.5251    1.1807   -1.0542 F   0  0  0  0  0  0  0  0  0  0  0  0
    6.9111    0.2238    0.4063 H   0  0  0  0  0  0  0  0  0  0  0  0
   -3.0265    0.3321   -0.1889 C   0  0  0  0  0  0  0  0  0  0  0  0
   -3.1058    0.4199   -1.5227 F   0  0  0  0  0  0  0  0  0  0  0  0
   -2.9640    1.5670    0.3259 F   0  0  0  0  0  0  0  0  0  0  0  0
   -4.3187   -0.3557    0.3526 C   0  0  0  0  0  0  0  0  0  0  0  0
   -5.6304    0.1401   -0.3256 C   0  0  0  0  0  0  0  0  0  0  0  0
   -4.2386   -1.6792    0.1576 F   0  0  0  0  0  0  0  0  0  0  0  0
   -4.4208   -0.1099    1.6628 F   0  0  0  0  0  0  0  0  0  0  0  0
   -5.7088   -0.2919   -1.5751 F   0  0  0  0  0  0  0  0  0  0  0  0
   -5.6856    1.4665   -0.3178 F   0  0  0  0  0  0  0  0  0  0  0  0
   -6.6654   -0.3360    0.3540 F   0  0  0  0  0  0  0  0  0  0  0  0
  1  3  1  0  0  0  0
  1 10  1  0  0  0  0
  1  4  1  0  0  0  0
  2  1  1  0  0  0  0
  4  5  1  0  0  0  0
  4  6  1  0  0  0  0
  7 22  1  0  0  0  0
  7  4  1  0  0  0  0
  8  7  1  0  0  0  0
  9  7  1  0  0  0  0
 10 13  1  0  0  0  0
 11 16  1  0  0  0  0
 11 10  1  0  0  0  0
 11 15  1  0  0  0  0
 12 10  1  0  0  0  0
 14 11  1  0  0  0  0
 16 17  1  0  0  0  0
 16 20  1  0  0  0  0
 17 19  1  0  0  0  0
 18 17  1  0  0  0  0
 21 16  1  0  0  0  0
 23 17  1  0  0  0  0
 23 25  1  0  0  0  0
 23 26  1  0  0  0  0
 24 23  1  0  0  0  0
 26 29  1  0  0  0  0
 27 31  1  0  0  0  0
 27 26  1  0  0  0  0
 27 32  1  0  0  0  0
 28 26  1  0  0  0  0
 30 27  1  0  0  0  0
M  END
>  <program>
Gaussian 16, Revision C.02

>  <basis>
6-311+G(2d,2p) (5D, 7F)

>  <File Format>
g03

$$$$
