/home/yang/projects/t99_calc/v1/qchem_data/combined/log_fchk/1H_ethane.log
 OpenBabel05152619573D
Gaussian applications/g16/g16/g16 # opt wb97xd/6-311+g(2d,2p) geom=connectivity 
  8  7  0  0  0  0  0  0  0  0999 V2000
   -0.6008    0.7518    0.0000 C   0  0  0  0  0  0  0  0  0  0  0  0
   -0.2332    1.4413    1.0941 F   0  0  0  0  0  0  0  0  0  0  0  0
   -0.2332    1.4413   -1.0941 F   0  0  0  0  0  0  0  0  0  0  0  0
    0.1217   -0.6035   -0.0000 C   0  0  0  0  0  0  0  0  0  0  0  0
   -0.2332   -1.2972    1.0810 F   0  0  0  0  0  0  0  0  0  0  0  0
    1.4391   -0.4549   -0.0000 F   0  0  0  0  0  0  0  0  0  0  0  0
   -0.2332   -1.2972   -1.0810 F   0  0  0  0  0  0  0  0  0  0  0  0
   -1.6822    0.6109    0.0000 H   0  0  0  0  0  0  0  0  0  0  0  0
  1  4  1  0  0  0  0
  1  8  1  0  0  0  0
  1  2  1  0  0  0  0
  3  1  1  0  0  0  0
  4  6  1  0  0  0  0
  4  5  1  0  0  0  0
  7  4  1  0  0  0  0
M  END
>  <program>
Gaussian 16, Revision A.03

>  <basis>
6-311+G(2d,2p) (5D, 7F)

>  <File Format>
g03

$$$$
