/home/yang/projects/t99_calc/v1/qchem_data/combined/log_fchk/1H_heptane.log
 OpenBabel05152619573D
Gaussian 16 # opt freq wb97xd/6-311+g(2d,2p) geom=connectivity
 23 22  0  0  0  0  0  0  0  0999 V2000
    1.5283   -0.3268   -0.0566 C   0  0  0  0  0  0  0  0  0  0  0  0
    1.6779   -0.6918   -1.3360 F   0  0  0  0  0  0  0  0  0  0  0  0
    1.4134   -1.4266    0.7004 F   0  0  0  0  0  0  0  0  0  0  0  0
    2.8006    0.4492    0.3982 C   0  0  0  0  0  0  0  0  0  0  0  0
    2.7425    1.7131   -0.0570 F   0  0  0  0  0  0  0  0  0  0  0  0
    2.8299    0.4795    1.7420 F   0  0  0  0  0  0  0  0  0  0  0  0
    4.1441   -0.1505   -0.0675 C   0  0  0  0  0  0  0  0  0  0  0  0
    4.3039    0.0195   -1.3890 F   0  0  0  0  0  0  0  0  0  0  0  0
    4.1783   -1.4662    0.2122 F   0  0  0  0  0  0  0  0  0  0  0  0
    0.2157    0.5128    0.0655 C   0  0  0  0  0  0  0  0  0  0  0  0
   -1.0758   -0.3677    0.0459 C   0  0  0  0  0  0  0  0  0  0  0  0
    0.1687    1.3770   -0.9564 F   0  0  0  0  0  0  0  0  0  0  0  0
    0.2396    1.1969    1.2167 F   0  0  0  0  0  0  0  0  0  0  0  0
   -0.9409   -1.3299   -0.8757 F   0  0  0  0  0  0  0  0  0  0  0  0
   -1.2203   -0.9359    1.2501 F   0  0  0  0  0  0  0  0  0  0  0  0
   -2.3643    0.4472   -0.2881 C   0  0  0  0  0  0  0  0  0  0  0  0
   -3.6888   -0.2839    0.0821 C   0  0  0  0  0  0  0  0  0  0  0  0
   -3.6933   -1.5169   -0.4098 F   0  0  0  0  0  0  0  0  0  0  0  0
   -3.8477   -0.3384    1.3960 F   0  0  0  0  0  0  0  0  0  0  0  0
   -2.3463    1.6105    0.3775 F   0  0  0  0  0  0  0  0  0  0  0  0
   -2.3902    0.6932   -1.6019 F   0  0  0  0  0  0  0  0  0  0  0  0
    4.9519    0.3558    0.4647 H   0  0  0  0  0  0  0  0  0  0  0  0
   -4.7055    0.3897   -0.4404 F   0  0  0  0  0  0  0  0  0  0  0  0
  1 10  1  0  0  0  0
  1  4  1  0  0  0  0
  1  3  1  0  0  0  0
  2  1  1  0  0  0  0
  4  6  1  0  0  0  0
  5  4  1  0  0  0  0
  7  9  1  0  0  0  0
  7  4  1  0  0  0  0
  7 22  1  0  0  0  0
  8  7  1  0  0  0  0
 10 13  1  0  0  0  0
 11 10  1  0  0  0  0
 11 15  1  0  0  0  0
 12 10  1  0  0  0  0
 14 11  1  0  0  0  0
 16 11  1  0  0  0  0
 16 17  1  0  0  0  0
 16 20  1  0  0  0  0
 17 19  1  0  0  0  0
 18 17  1  0  0  0  0
 21 16  1  0  0  0  0
 23 17  1  0  0  0  0
M  END
>  <program>
Gaussian 16, Revision C.02

>  <basis>
6-311+G(2d,2p) (5D, 7F)

>  <File Format>
g03

$$$$
