Title Card Required
 OpenBabel05152619573D

 20 19  0  0  0  0  0  0  0  0999 V2000
   -3.0495    0.1325    0.1846 C   0  0  0  0  0  0  0  0  0  0  0  0
   -1.6892   -0.5423   -0.1622 C   0  0  0  0  0  0  0  0  0  0  0  0
   -0.4599    0.4122   -0.0480 C   0  0  0  0  0  0  0  0  0  0  0  0
    0.9037   -0.3479    0.0120 C   0  0  0  0  0  0  0  0  0  0  0  0
    2.1289    0.5573   -0.3146 C   0  0  0  0  0  0  0  0  0  0  0  0
    3.5011   -0.0054    0.1118 C   0  0  0  0  0  0  0  0  0  0  0  0
   -3.1369    0.3815    1.4825 F   0  0  0  0  0  0  0  0  0  0  0  0
   -3.1912    1.2684   -0.4882 F   0  0  0  0  0  0  0  0  0  0  0  0
   -1.7692   -0.9935   -1.4184 F   0  0  0  0  0  0  0  0  0  0  0  0
   -1.5315   -1.5813    0.6695 F   0  0  0  0  0  0  0  0  0  0  0  0
   -0.5835    1.1502    1.0631 F   0  0  0  0  0  0  0  0  0  0  0  0
   -0.4639    1.2260   -1.1123 F   0  0  0  0  0  0  0  0  0  0  0  0
    0.8790   -1.3570   -0.8692 F   0  0  0  0  0  0  0  0  0  0  0  0
    1.0516   -0.8497    1.2446 F   0  0  0  0  0  0  0  0  0  0  0  0
    2.1799    0.7499   -1.6443 F   0  0  0  0  0  0  0  0  0  0  0  0
    1.9776    1.7514    0.2850 F   0  0  0  0  0  0  0  0  0  0  0  0
    3.6232    0.0125    1.4481 F   0  0  0  0  0  0  0  0  0  0  0  0
    3.6305   -1.2720   -0.3230 F   0  0  0  0  0  0  0  0  0  0  0  0
   -4.0314   -0.6922   -0.1561 F   0  0  0  0  0  0  0  0  0  0  0  0
    4.2824    0.6139   -0.3332 H   0  0  0  0  0  0  0  0  0  0  0  0
  1  2  1  0  0  0  0
  1  7  1  0  0  0  0
  1  8  1  0  0  0  0
  1 19  1  0  0  0  0
  2  3  1  0  0  0  0
  2  9  1  0  0  0  0
  2 10  1  0  0  0  0
  3  4  1  0  0  0  0
  3 11  1  0  0  0  0
  3 12  1  0  0  0  0
  4  5  1  0  0  0  0
  4 13  1  0  0  0  0
  4 14  1  0  0  0  0
  5  6  1  0  0  0  0
  5 15  1  0  0  0  0
  5 16  1  0  0  0  0
  6 17  1  0  0  0  0
  6 18  1  0  0  0  0
  6 20  1  0  0  0  0
M  END
$$$$
