Title Card Required
 OpenBabel05152619573D

  5  4  0  0  0  0  0  0  0  0999 V2000
   -0.0000    0.0000    0.3386 C   0  0  0  0  0  0  0  0  0  0  0  0
    0.0000    1.2494   -0.1281 F   0  0  0  0  0  0  0  0  0  0  0  0
   -1.0820   -0.6247   -0.1281 F   0  0  0  0  0  0  0  0  0  0  0  0
    1.0820   -0.6247   -0.1281 F   0  0  0  0  0  0  0  0  0  0  0  0
   -0.0000    0.0000    1.4273 H   0  0  0  0  0  0  0  0  0  0  0  0
  1  2  1  0  0  0  0
  1  3  1  0  0  0  0
  1  4  1  0  0  0  0
  1  5  1  0  0  0  0
M  END
$$$$
