/home/yang/projects/t99_calc/v1/qchem_data/combined/log_fchk/1H_nonane.log
 OpenBabel05152619573D
Gaussian 16 # opt freq wb97xd/6-311+g(2d,2p) geom=connectivity
 29 28  0  0  0  0  0  0  0  0999 V2000
    2.8243   -0.3121   -0.1359 C   0  0  0  0  0  0  0  0  0  0  0  0
    2.9539   -0.3250   -1.4684 F   0  0  0  0  0  0  0  0  0  0  0  0
    2.7260   -1.5737    0.3052 F   0  0  0  0  0  0  0  0  0  0  0  0
    4.1011    0.3263    0.4887 C   0  0  0  0  0  0  0  0  0  0  0  0
    4.0311    1.6650    0.3835 F   0  0  0  0  0  0  0  0  0  0  0  0
    4.1520    0.0018    1.7924 F   0  0  0  0  0  0  0  0  0  0  0  0
    5.4390   -0.1192   -0.1382 C   0  0  0  0  0  0  0  0  0  0  0  0
    5.5757    0.3922   -1.3714 F   0  0  0  0  0  0  0  0  0  0  0  0
    5.4831   -1.4619   -0.2135 F   0  0  0  0  0  0  0  0  0  0  0  0
    1.5111    0.4553    0.2240 C   0  0  0  0  0  0  0  0  0  0  0  0
    0.2227   -0.3996   -0.0109 C   0  0  0  0  0  0  0  0  0  0  0  0
    1.4448    1.5590   -0.5317 F   0  0  0  0  0  0  0  0  0  0  0  0
    1.5523    0.8096    1.5148 F   0  0  0  0  0  0  0  0  0  0  0  0
    0.3520   -1.0810   -1.1557 F   0  0  0  0  0  0  0  0  0  0  0  0
    0.0971   -1.2643    1.0037 F   0  0  0  0  0  0  0  0  0  0  0  0
   -1.0736    0.4706   -0.0998 C   0  0  0  0  0  0  0  0  0  0  0  0
   -2.3793   -0.3612    0.1180 C   0  0  0  0  0  0  0  0  0  0  0  0
   -2.2710   -1.5293   -0.5281 F   0  0  0  0  0  0  0  0  0  0  0  0
   -2.5169   -0.5997    1.4286 F   0  0  0  0  0  0  0  0  0  0  0  0
   -1.0238    1.4270    0.8359 F   0  0  0  0  0  0  0  0  0  0  0  0
   -1.1185    1.0416   -1.3097 F   0  0  0  0  0  0  0  0  0  0  0  0
    6.2536    0.2367    0.4957 H   0  0  0  0  0  0  0  0  0  0  0  0
   -3.6585    0.3660   -0.4026 C   0  0  0  0  0  0  0  0  0  0  0  0
   -3.6973    0.2682   -1.7353 F   0  0  0  0  0  0  0  0  0  0  0  0
   -3.6115    1.6602   -0.0572 F   0  0  0  0  0  0  0  0  0  0  0  0
   -4.9900   -0.2199    0.1543 C   0  0  0  0  0  0  0  0  0  0  0  0
   -5.0210   -1.5376   -0.0041 F   0  0  0  0  0  0  0  0  0  0  0  0
   -5.1318    0.0679    1.4393 F   0  0  0  0  0  0  0  0  0  0  0  0
   -6.0022    0.3163   -0.5149 F   0  0  0  0  0  0  0  0  0  0  0  0
  1 10  1  0  0  0  0
  1  3  1  0  0  0  0
  1  4  1  0  0  0  0
  2  1  1  0  0  0  0
  4  6  1  0  0  0  0
  5  4  1  0  0  0  0
  7  4  1  0  0  0  0
  7 22  1  0  0  0  0
  8  7  1  0  0  0  0
  9  7  1  0  0  0  0
 10 13  1  0  0  0  0
 11 10  1  0  0  0  0
 11 15  1  0  0  0  0
 12 10  1  0  0  0  0
 14 11  1  0  0  0  0
 16 11  1  0  0  0  0
 16 17  1  0  0  0  0
 16 20  1  0  0  0  0
 17 19  1  0  0  0  0
 18 17  1  0  0  0  0
 21 16  1  0  0  0  0
 23 25  1  0  0  0  0
 23 17  1  0  0  0  0
 23 26  1  0  0  0  0
 24 23  1  0  0  0  0
 26 28  1  0  0  0  0
 27 26  1  0  0  0  0
 29 26  1  0  0  0  0
M  END
>  <program>
Gaussian 16, Revision C.02

>  <basis>
6-311+G(2d,2p) (5D, 7F)

>  <File Format>
g03

$$$$
