Title Card Required
 OpenBabel05152619573D

 26 25  0  0  0  0  0  0  0  0999 V2000
    2.1823   -0.3109   -0.1127 C   0  0  0  0  0  0  0  0  0  0  0  0
    2.2891   -0.4840   -1.4360 F   0  0  0  0  0  0  0  0  0  0  0  0
    2.1282   -1.5108    0.4815 F   0  0  0  0  0  0  0  0  0  0  0  0
    3.4506    0.4330    0.4024 C   0  0  0  0  0  0  0  0  0  0  0  0
    3.3435    1.7452    0.1289 F   0  0  0  0  0  0  0  0  0  0  0  0
    3.5288    0.2789    1.7358 F   0  0  0  0  0  0  0  0  0  0  0  0
    4.7910   -0.0560   -0.1858 C   0  0  0  0  0  0  0  0  0  0  0  0
    4.8966    0.2969   -1.4763 F   0  0  0  0  0  0  0  0  0  0  0  0
    4.8703   -1.3956   -0.0903 F   0  0  0  0  0  0  0  0  0  0  0  0
    0.8539    0.4601    0.1777 C   0  0  0  0  0  0  0  0  0  0  0  0
   -0.4133   -0.4508    0.0796 C   0  0  0  0  0  0  0  0  0  0  0  0
    0.7411    1.4587   -0.7075 F   0  0  0  0  0  0  0  0  0  0  0  0
    0.9084    0.9738    1.4133 F   0  0  0  0  0  0  0  0  0  0  0  0
   -0.2892   -1.2618   -0.9783 F   0  0  0  0  0  0  0  0  0  0  0  0
   -0.4915   -1.1901    1.1930 F   0  0  0  0  0  0  0  0  0  0  0  0
   -1.7370    0.3656   -0.0809 C   0  0  0  0  0  0  0  0  0  0  0  0
   -3.0114   -0.4647    0.2692 C   0  0  0  0  0  0  0  0  0  0  0  0
   -2.9048   -1.6939   -0.2541 F   0  0  0  0  0  0  0  0  0  0  0  0
   -3.1117   -0.5603    1.5989 F   0  0  0  0  0  0  0  0  0  0  0  0
   -1.6985    1.4319    0.7288 F   0  0  0  0  0  0  0  0  0  0  0  0
   -1.8262    0.7854   -1.3494 F   0  0  0  0  0  0  0  0  0  0  0  0
    5.6045    0.3983    0.3832 H   0  0  0  0  0  0  0  0  0  0  0  0
   -4.3372    0.1572   -0.2616 C   0  0  0  0  0  0  0  0  0  0  0  0
   -4.4134    0.0541   -1.5798 F   0  0  0  0  0  0  0  0  0  0  0  0
   -4.4215    1.4369    0.0818 F   0  0  0  0  0  0  0  0  0  0  0  0
   -5.3580   -0.4986    0.2751 F   0  0  0  0  0  0  0  0  0  0  0  0
  1  2  1  0  0  0  0
  1  3  1  0  0  0  0
  1  4  1  0  0  0  0
  1 10  1  0  0  0  0
  4  5  1  0  0  0  0
  4  6  1  0  0  0  0
  4  7  1  0  0  0  0
  7  8  1  0  0  0  0
  7  9  1  0  0  0  0
  7 22  1  0  0  0  0
 10 11  1  0  0  0  0
 10 12  1  0  0  0  0
 10 13  1  0  0  0  0
 11 14  1  0  0  0  0
 11 15  1  0  0  0  0
 11 16  1  0  0  0  0
 16 17  1  0  0  0  0
 16 20  1  0  0  0  0
 16 21  1  0  0  0  0
 17 18  1  0  0  0  0
 17 19  1  0  0  0  0
 17 23  1  0  0  0  0
 23 24  1  0  0  0  0
 23 25  1  0  0  0  0
 23 26  1  0  0  0  0
M  END
$$$$
