/home/yang/projects/t99_calc/v1/qchem_data/combined/log_fchk/1Hbutane.log
 OpenBabel05152619573D
Gaussian applications/g16/g16/g16 # freq wb97xd/6-311+g(2d,2p) geom=connectivity
 14 13  0  0  0  0  0  0  0  0999 V2000
    2.2129    0.1783    0.0003 C   0  0  0  0  0  0  0  0  0  0  0  0
    2.4372   -0.0640    1.3015 F   0  0  0  0  0  0  0  0  0  0  0  0
    2.4741   -0.9378   -0.7035 F   0  0  0  0  0  0  0  0  0  0  0  0
    0.7492    0.6104   -0.2229 C   0  0  0  0  0  0  0  0  0  0  0  0
    0.4995    1.6350    0.6120 F   0  0  0  0  0  0  0  0  0  0  0  0
    0.6586    1.0620   -1.4867 F   0  0  0  0  0  0  0  0  0  0  0  0
   -0.3207   -0.4986   -0.0181 C   0  0  0  0  0  0  0  0  0  0  0  0
   -0.0505   -1.1758    1.1066 F   0  0  0  0  0  0  0  0  0  0  0  0
   -0.2679   -1.3402   -1.0575 F   0  0  0  0  0  0  0  0  0  0  0  0
   -1.7820    0.0253    0.0915 C   0  0  0  0  0  0  0  0  0  0  0  0
   -2.6109   -1.0107    0.0616 F   0  0  0  0  0  0  0  0  0  0  0  0
   -2.0669    0.8307   -0.9253 F   0  0  0  0  0  0  0  0  0  0  0  0
   -1.9649    0.6811    1.2284 F   0  0  0  0  0  0  0  0  0  0  0  0
    2.8675    0.9839   -0.3381 H   0  0  0  0  0  0  0  0  0  0  0  0
  1  2  1  0  0  0  0
  3  1  1  0  0  0  0
  4  7  1  0  0  0  0
  4  1  1  0  0  0  0
  4  5  1  0  0  0  0
  6  4  1  0  0  0  0
  7 10  1  0  0  0  0
  7  8  1  0  0  0  0
  9  7  1  0  0  0  0
 10 13  1  0  0  0  0
 11 10  1  0  0  0  0
 12 10  1  0  0  0  0
 14  1  1  0  0  0  0
M  END
>  <program>
Gaussian 16, Revision A.03

>  <basis>
6-311+G(2d,2p) (5D, 7F)

>  <File Format>
g03

$$$$
