/home/yang/projects/t99_calc/v1/qchem_data/combined/log_fchk/21_propene.log
 OpenBabel05152619573D
Gaussian applications/g16/g16/g16 # opt freq wb97xd/6-311+g(2d,2p) geom=connecti
  9  8  0  0  0  0  0  0  0  0999 V2000
    0.5863    0.0426   -0.0001 C   0  0  0  0  0  0  0  0  0  0  0  0
    1.0735   -0.5805   -1.0771 F   0  0  0  0  0  0  0  0  0  0  0  0
    1.0524    1.2923    0.0001 F   0  0  0  0  0  0  0  0  0  0  0  0
   -0.9210    0.0241   -0.0001 C   0  0  0  0  0  0  0  0  0  0  0  0
   -1.3846   -1.2270   -0.0003 F   0  0  0  0  0  0  0  0  0  0  0  0
   -1.7093    1.0749    0.0001 C   0  0  0  0  0  0  0  0  0  0  0  0
   -1.2854    2.0654    0.0001 H   0  0  0  0  0  0  0  0  0  0  0  0
   -2.7815    0.9515    0.0003 H   0  0  0  0  0  0  0  0  0  0  0  0
    1.0732   -0.5810    1.0772 F   0  0  0  0  0  0  0  0  0  0  0  0
  1  4  1  0  0  0  0
  1  3  1  0  0  0  0
  1  9  1  0  0  0  0
  2  1  1  0  0  0  0
  4  6  2  0  0  0  0
  5  4  1  0  0  0  0
  6  8  1  0  0  0  0
  7  6  1  0  0  0  0
M  END
>  <program>
Gaussian 16, Revision A.03

>  <basis>
6-311+G(2d,2p) (5D, 7F)

>  <File Format>
g03

$$$$
