/home/yang/projects/t99_calc/v1/qchem_data/combined/log_fchk/22_butene.log
 OpenBabel05152619573D
Gaussian applications/g16/g16/g16 # opt freq wb97xd/6-311+g(2d,2p) geom=connecti
 12 11  0  0  0  0  0  0  0  0999 V2000
    0.3985    0.4777    0.0384 C   0  0  0  0  0  0  0  0  0  0  0  0
    0.1704    1.5939    0.7755 F   0  0  0  0  0  0  0  0  0  0  0  0
    0.6700    0.8683   -1.2249 F   0  0  0  0  0  0  0  0  0  0  0  0
    1.5169   -0.3128    0.6394 C   0  0  0  0  0  0  0  0  0  0  0  0
   -0.9393   -0.2996   -0.0121 C   0  0  0  0  0  0  0  0  0  0  0  0
   -1.2743   -0.7085    1.2132 F   0  0  0  0  0  0  0  0  0  0  0  0
   -0.8212   -1.3692   -0.7949 F   0  0  0  0  0  0  0  0  0  0  0  0
    2.5502   -0.7440   -0.0598 C   0  0  0  0  0  0  0  0  0  0  0  0
    2.6392   -0.5464   -1.1190 H   0  0  0  0  0  0  0  0  0  0  0  0
    3.3404   -1.3072    0.4156 H   0  0  0  0  0  0  0  0  0  0  0  0
    1.4119   -0.5078    1.6979 H   0  0  0  0  0  0  0  0  0  0  0  0
   -1.9170    0.4636   -0.4834 F   0  0  0  0  0  0  0  0  0  0  0  0
  1  4  1  0  0  0  0
  1  2  1  0  0  0  0
  3  1  1  0  0  0  0
  4 11  1  0  0  0  0
  5  1  1  0  0  0  0
  5  6  1  0  0  0  0
  7  5  1  0  0  0  0
  8 10  1  0  0  0  0
  8  4  2  0  0  0  0
  9  8  1  0  0  0  0
 12  5  1  0  0  0  0
M  END
>  <program>
Gaussian 16, Revision A.03

>  <basis>
6-311+G(2d,2p) (5D, 7F)

>  <File Format>
g03

$$$$
