/home/yang/projects/t99_calc/v1/qchem_data/combined/log_fchk/22_fts.log
 OpenBabel05152619573D
Gaussian 16 #p opt freq wb97xd/6-311+g(2d,2p) scf=xqc
 18 17  0  0  0  0  0  0  0  0999 V2000
   -2.7196   -0.0524   -0.1152 S   0  0  0  0  0  0  0  0  0  0  0  0
   -1.1461    0.7692    0.0290 C   0  0  0  0  0  0  0  0  0  0  0  0
   -2.6790   -1.0001   -1.1933 O   0  0  0  0  0  1  0  0  0  0  0  0
   -3.7410    0.9363   -0.0209 O   0  0  0  0  0  1  0  0  0  0  0  0
   -2.7295   -0.9056    1.2493 O   0  0  0  0  0  0  0  0  0  0  0  0
   -2.8022   -1.8354    1.0092 H   0  0  0  0  0  0  0  0  0  0  0  0
    0.0209   -0.2030   -0.0306 C   0  0  0  0  0  0  0  0  0  0  0  0
    1.3404    0.5324    0.0332 C   0  0  0  0  0  0  0  0  0  0  0  0
    2.5682   -0.4050   -0.0259 C   0  0  0  0  0  0  0  0  0  0  0  0
    1.4564    1.4055   -0.9944 F   0  0  0  0  0  0  0  0  0  0  0  0
    1.4396    1.2452    1.1804 F   0  0  0  0  0  0  0  0  0  0  0  0
    2.5577   -1.1007   -1.1623 F   0  0  0  0  0  0  0  0  0  0  0  0
    3.6957    0.2862    0.0396 F   0  0  0  0  0  0  0  0  0  0  0  0
    2.5343   -1.2651    0.9929 F   0  0  0  0  0  0  0  0  0  0  0  0
   -1.1831    1.3271    0.9620 H   0  0  0  0  0  0  0  0  0  0  0  0
   -1.1341    1.4756   -0.7996 H   0  0  0  0  0  0  0  0  0  0  0  0
   -0.0162   -0.8987    0.8063 H   0  0  0  0  0  0  0  0  0  0  0  0
   -0.0094   -0.7762   -0.9558 H   0  0  0  0  0  0  0  0  0  0  0  0
  1  4  1  0  0  0  0
  1  2  1  0  0  0  0
  1  5  1  0  0  0  0
  2 15  1  0  0  0  0
  3  1  1  0  0  0  0
  6  5  1  0  0  0  0
  7  2  1  0  0  0  0
  7  8  1  0  0  0  0
  7 17  1  0  0  0  0
  8 11  1  0  0  0  0
  9  8  1  0  0  0  0
  9 13  1  0  0  0  0
  9 14  1  0  0  0  0
 10  8  1  0  0  0  0
 12  9  1  0  0  0  0
 16  2  1  0  0  0  0
 18  7  1  0  0  0  0
M  END
>  <program>
Gaussian 16, Revision A.03

>  <basis>
6-311+G(2d,2p) (5D, 7F)

>  <File Format>
g03

$$$$
