Title Card Required
 OpenBabel05152619573D

 14 13  0  0  0  0  0  0  0  0999 V2000
   -1.1085   -0.1772    0.0000 C   0  0  0  0  0  0  0  0  0  0  0  0
    0.3680    0.2789   -0.0000 C   0  0  0  0  0  0  0  0  0  0  0  0
    1.3606   -0.8594   -0.0004 C   0  0  0  0  0  0  0  0  0  0  0  0
    2.8042   -0.3695    0.0001 C   0  0  0  0  0  0  0  0  0  0  0  0
   -1.3630   -0.9179   -1.0804 F   0  0  0  0  0  0  0  0  0  0  0  0
    0.5304    1.0680   -1.0909 F   0  0  0  0  0  0  0  0  0  0  0  0
    0.5306    1.0676    1.0910 F   0  0  0  0  0  0  0  0  0  0  0  0
   -1.3631   -0.9174    1.0808 F   0  0  0  0  0  0  0  0  0  0  0  0
    3.0162    0.2319   -0.8820 H   0  0  0  0  0  0  0  0  0  0  0  0
    3.4801   -1.2227   -0.0011 H   0  0  0  0  0  0  0  0  0  0  0  0
    3.0163    0.2297    0.8837 H   0  0  0  0  0  0  0  0  0  0  0  0
    1.1583   -1.4714    0.8783 H   0  0  0  0  0  0  0  0  0  0  0  0
    1.1586   -1.4706   -0.8796 H   0  0  0  0  0  0  0  0  0  0  0  0
   -1.9323    0.8626   -0.0002 F   0  0  0  0  0  0  0  0  0  0  0  0
  1  2  1  0  0  0  0
  1  5  1  0  0  0  0
  1  8  1  0  0  0  0
  1 14  1  0  0  0  0
  2  3  1  0  0  0  0
  2  6  1  0  0  0  0
  2  7  1  0  0  0  0
  3  4  1  0  0  0  0
  3 12  1  0  0  0  0
  3 13  1  0  0  0  0
  4  9  1  0  0  0  0
  4 10  1  0  0  0  0
  4 11  1  0  0  0  0
M  END
$$$$
