/home/yang/projects/t99_calc/v1/qchem_data/combined/log_fchk/23_ftca.log
 OpenBabel05152619573D
Gaussian 16 # opt freq wb97xd/6-311+g(2d,2p) geom=connectivity
 17 16  0  0  0  0  0  0  0  0999 V2000
    0.7702   -0.4771    0.1489 C   0  0  0  0  0  0  0  0  0  0  0  0
    0.8477   -0.8530    1.4488 F   0  0  0  0  0  0  0  0  0  0  0  0
    0.8744   -1.6014   -0.5999 F   0  0  0  0  0  0  0  0  0  0  0  0
   -0.5283    0.2428   -0.1282 C   0  0  0  0  0  0  0  0  0  0  0  0
   -1.7346   -0.6402    0.1861 C   0  0  0  0  0  0  0  0  0  0  0  0
   -3.0551    0.0417   -0.0643 C   0  0  0  0  0  0  0  0  0  0  0  0
   -4.0082   -0.4720   -0.5785 O   0  0  0  0  0  0  0  0  0  0  0  0
   -3.0703    1.3114    0.3845 O   0  0  0  0  0  0  0  0  0  0  0  0
   -3.9513    1.6616    0.2110 H   0  0  0  0  0  0  0  0  0  0  0  0
    2.0254    0.3754   -0.1459 C   0  0  0  0  0  0  0  0  0  0  0  0
    2.0189    1.4778    0.6044 F   0  0  0  0  0  0  0  0  0  0  0  0
    2.0401    0.7425   -1.4281 F   0  0  0  0  0  0  0  0  0  0  0  0
    3.1340   -0.3040    0.1114 F   0  0  0  0  0  0  0  0  0  0  0  0
   -1.7266   -1.5526   -0.4035 H   0  0  0  0  0  0  0  0  0  0  0  0
   -1.7187   -0.9255    1.2400 H   0  0  0  0  0  0  0  0  0  0  0  0
   -0.5292    0.5385   -1.1770 H   0  0  0  0  0  0  0  0  0  0  0  0
   -0.5477    1.1495    0.4731 H   0  0  0  0  0  0  0  0  0  0  0  0
  1  2  1  0  0  0  0
  3  1  1  0  0  0  0
  4  1  1  0  0  0  0
  4  5  1  0  0  0  0
  4 17  1  0  0  0  0
  5 15  1  0  0  0  0
  6  5  1  0  0  0  0
  6  8  1  0  0  0  0
  7  6  2  0  0  0  0
  9  8  1  0  0  0  0
 10 13  1  0  0  0  0
 10  1  1  0  0  0  0
 10 11  1  0  0  0  0
 12 10  1  0  0  0  0
 14  5  1  0  0  0  0
 16  4  1  0  0  0  0
M  END
>  <program>
Gaussian 16, Revision C.02

>  <basis>
6-311+G(2d,2p) (5D, 7F)

>  <File Format>
g03

$$$$
