Title Card Required
 OpenBabel05152619573D

 12 11  0  0  0  0  0  0  0  0999 V2000
    1.9843   -0.0767    0.0000 C   0  0  0  0  0  0  0  0  0  0  0  0
    2.1018   -1.3959   -0.0003 F   0  0  0  0  0  0  0  0  0  0  0  0
    2.6076    0.4045   -1.0775 F   0  0  0  0  0  0  0  0  0  0  0  0
    0.5422    0.3810   -0.0001 C   0  0  0  0  0  0  0  0  0  0  0  0
    0.4638    1.7027   -0.0001 F   0  0  0  0  0  0  0  0  0  0  0  0
   -0.5423   -0.3811   -0.0000 C   0  0  0  0  0  0  0  0  0  0  0  0
   -0.4638   -1.7028   -0.0000 F   0  0  0  0  0  0  0  0  0  0  0  0
   -1.9843    0.0767    0.0000 C   0  0  0  0  0  0  0  0  0  0  0  0
   -2.6075   -0.4040   -1.0778 F   0  0  0  0  0  0  0  0  0  0  0  0
   -2.1016    1.3959    0.0002 F   0  0  0  0  0  0  0  0  0  0  0  0
   -2.6075   -0.4043    1.0777 F   0  0  0  0  0  0  0  0  0  0  0  0
    2.6073    0.4039    1.0779 F   0  0  0  0  0  0  0  0  0  0  0  0
  1  2  1  0  0  0  0
  1  3  1  0  0  0  0
  1  4  1  0  0  0  0
  1 12  1  0  0  0  0
  4  5  1  0  0  0  0
  4  6  2  0  0  0  0
  6  7  1  0  0  0  0
  6  8  1  0  0  0  0
  8  9  1  0  0  0  0
  8 10  1  0  0  0  0
  8 11  1  0  0  0  0
M  END
$$$$
