/home/yang/projects/t99_calc/v1/qchem_data/combined/log_fchk/2_butyl.log
 OpenBabel05152619573D
Gaussian 16 # opt freq uwb97xd/6-311+g(2d,2p) geom=connectivity scf=xqc
 13 12  0  0  1  0  0  0  0  0999 V2000
   -2.0450   -0.0047   -0.0350 C   0  0  0  0  0  0  0  0  0  0  0  0
   -2.8029   -0.6833   -0.8972 F   0  0  0  0  0  0  0  0  0  0  0  0
   -2.5174   -0.2536    1.1926 F   0  0  0  0  0  0  0  0  0  0  0  0
   -2.1744    1.2948   -0.2773 F   0  0  0  0  0  0  0  0  0  0  0  0
   -0.6097   -0.4217   -0.1602 C   0  0  2  0  0  3  0  0  0  0  0  0
   -0.3990   -1.7078    0.0193 F   0  0  0  0  0  0  0  0  0  0  0  0
    0.5484    0.5121    0.0127 C   0  0  0  0  0  0  0  0  0  0  0  0
    0.4657    1.1706    1.1930 F   0  0  0  0  0  0  0  0  0  0  0  0
    0.5365    1.4382   -0.9651 F   0  0  0  0  0  0  0  0  0  0  0  0
    1.9300   -0.1951   -0.0275 C   0  0  0  0  0  0  0  0  0  0  0  0
    2.0577   -0.8828   -1.1576 F   0  0  0  0  0  0  0  0  0  0  0  0
    2.0632   -1.0205    1.0028 F   0  0  0  0  0  0  0  0  0  0  0  0
    2.8882    0.7173    0.0296 F   0  0  0  0  0  0  0  0  0  0  0  0
  1  3  1  0  0  0  0
  2  1  1  0  0  0  0
  4  1  1  0  0  0  0
  5  1  1  0  0  0  0
  5  7  1  0  0  0  0
  5  6  1  1  0  0  0
  7  8  1  0  0  0  0
  9  7  1  0  0  0  0
 10  7  1  0  0  0  0
 10 13  1  0  0  0  0
 10 12  1  0  0  0  0
 11 10  1  0  0  0  0
M  END
>  <program>
Gaussian 16, Revision A.03

>  <basis>
6-311+G(2d,2p) (5D, 7F)

>  <File Format>
g03

$$$$
