Title Card Required
 OpenBabel05152619573D

 12 11  0  0  0  0  0  0  0  0999 V2000
    2.0361    0.0509    0.0003 C   0  0  0  0  0  0  0  0  0  0  0  0
    2.8227   -0.9890    0.0004 F   0  0  0  0  0  0  0  0  0  0  0  0
    2.2130    0.7821   -1.0825 F   0  0  0  0  0  0  0  0  0  0  0  0
    2.2127    0.7822    1.0831 F   0  0  0  0  0  0  0  0  0  0  0  0
    0.5601   -0.4332    0.0002 C   0  0  0  0  0  0  0  0  0  0  0  0
    0.3447   -1.6784    0.0003 F   0  0  0  0  0  0  0  0  0  0  0  0
   -0.5601    0.4332   -0.0002 C   0  0  0  0  0  0  0  0  0  0  0  0
   -0.3447    1.6784   -0.0003 F   0  0  0  0  0  0  0  0  0  0  0  0
   -2.0361   -0.0509   -0.0003 C   0  0  0  0  0  0  0  0  0  0  0  0
   -2.8227    0.9890   -0.0004 F   0  0  0  0  0  0  0  0  0  0  0  0
   -2.2130   -0.7821    1.0825 F   0  0  0  0  0  0  0  0  0  0  0  0
   -2.2127   -0.7822   -1.0831 F   0  0  0  0  0  0  0  0  0  0  0  0
  1  2  1  0  0  0  0
  1  3  1  0  0  0  0
  1  4  1  0  0  0  0
  1  5  1  0  0  0  0
  5  6  1  0  0  0  0
  5  7  2  0  0  0  0
  7  8  1  0  0  0  0
  7  9  1  0  0  0  0
  9 10  1  0  0  0  0
  9 11  1  0  0  0  0
  9 12  1  0  0  0  0
M  END
$$$$
