/home/yang/projects/t99_calc/v1/qchem_data/combined/log_fchk/2_hexyl.log
 OpenBabel05152619573D
Gaussian applications/g16/g16/g16 # opt freq uwb97xd/6-311+g(2d,2p) geom=connect
 19 18  0  0  1  0  0  0  0  0999 V2000
   -3.4007    0.0361   -0.0682 C   0  0  0  0  0  0  0  0  0  0  0  0
   -4.1633   -0.5807   -0.9717 F   0  0  0  0  0  0  0  0  0  0  0  0
   -3.9194   -0.2248    1.1381 F   0  0  0  0  0  0  0  0  0  0  0  0
   -3.4636    1.3458   -0.2746 F   0  0  0  0  0  0  0  0  0  0  0  0
   -1.9844   -0.4580   -0.1643 C   0  0  2  0  0  3  0  0  0  0  0  0
   -1.8657   -1.7553    0.0243 F   0  0  0  0  0  0  0  0  0  0  0  0
   -0.7814    0.3893    0.1385 C   0  0  0  0  0  0  0  0  0  0  0  0
   -0.8205    0.8184    1.4218 F   0  0  0  0  0  0  0  0  0  0  0  0
   -0.7881    1.4756   -0.6551 F   0  0  0  0  0  0  0  0  0  0  0  0
    0.5551   -0.3818   -0.0840 C   0  0  0  0  0  0  0  0  0  0  0  0
    0.4776   -1.0276   -1.2574 F   0  0  0  0  0  0  0  0  0  0  0  0
    0.6978   -1.2797    0.9006 F   0  0  0  0  0  0  0  0  0  0  0  0
    1.8145    0.5392   -0.1235 C   0  0  0  0  0  0  0  0  0  0  0  0
    1.7416    1.4535    0.8521 F   0  0  0  0  0  0  0  0  0  0  0  0
    1.8536    1.1622   -1.3061 F   0  0  0  0  0  0  0  0  0  0  0  0
    3.1597   -0.2270    0.0519 C   0  0  0  0  0  0  0  0  0  0  0  0
    4.1586    0.6025   -0.2190 F   0  0  0  0  0  0  0  0  0  0  0  0
    3.2958   -0.6631    1.2951 F   0  0  0  0  0  0  0  0  0  0  0  0
    3.2206   -1.2587   -0.7816 F   0  0  0  0  0  0  0  0  0  0  0  0
  1  3  1  0  0  0  0
  2  1  1  0  0  0  0
  4  1  1  0  0  0  0
  5  1  1  0  0  0  0
  5  6  1  1  0  0  0
  5  7  1  0  0  0  0
  7  8  1  0  0  0  0
  9  7  1  0  0  0  0
 10  7  1  0  0  0  0
 10 12  1  0  0  0  0
 11 10  1  0  0  0  0
 13 10  1  0  0  0  0
 13 16  1  0  0  0  0
 13 14  1  0  0  0  0
 15 13  1  0  0  0  0
 16 18  1  0  0  0  0
 17 16  1  0  0  0  0
 19 16  1  0  0  0  0
M  END
>  <program>
Gaussian 16, Revision A.03

>  <basis>
6-311+G(2d,2p) (5D, 7F)

>  <File Format>
g03

$$$$
