Title Card Required
 OpenBabel05152619573D

 18 17  0  0  0  0  0  0  0  0999 V2000
    0.5752    0.4554   -0.6723 C   0  0  0  0  0  0  0  0  0  0  0  0
    0.6249   -0.3777   -1.7213 F   0  0  0  0  0  0  0  0  0  0  0  0
    1.0612    1.6481   -1.0506 F   0  0  0  0  0  0  0  0  0  0  0  0
   -0.8597    0.6474   -0.2062 C   0  0  0  0  0  0  0  0  0  0  0  0
   -1.0818    1.8517    0.2908 F   0  0  0  0  0  0  0  0  0  0  0  0
   -1.8119   -0.2738   -0.2560 C   0  0  0  0  0  0  0  0  0  0  0  0
   -1.5663   -1.4851   -0.7313 F   0  0  0  0  0  0  0  0  0  0  0  0
   -3.2501   -0.1401    0.1909 C   0  0  0  0  0  0  0  0  0  0  0  0
   -4.0646   -0.4039   -0.8326 F   0  0  0  0  0  0  0  0  0  0  0  0
   -3.5288    1.0711    0.6493 F   0  0  0  0  0  0  0  0  0  0  0  0
   -3.5072   -1.0274    1.1539 F   0  0  0  0  0  0  0  0  0  0  0  0
    1.4724   -0.1132    0.4629 C   0  0  0  0  0  0  0  0  0  0  0  0
    1.3498    0.6893    1.5316 F   0  0  0  0  0  0  0  0  0  0  0  0
    1.0149   -1.3321    0.7823 F   0  0  0  0  0  0  0  0  0  0  0  0
    2.9855   -0.2421    0.1361 C   0  0  0  0  0  0  0  0  0  0  0  0
    3.5180    0.9483   -0.0998 F   0  0  0  0  0  0  0  0  0  0  0  0
    3.1718   -1.0191   -0.9221 F   0  0  0  0  0  0  0  0  0  0  0  0
    3.6003   -0.7856    1.1796 F   0  0  0  0  0  0  0  0  0  0  0  0
  1  2  1  0  0  0  0
  1  3  1  0  0  0  0
  1  4  1  0  0  0  0
  1 12  1  0  0  0  0
  4  5  1  0  0  0  0
  4  6  2  0  0  0  0
  6  7  1  0  0  0  0
  6  8  1  0  0  0  0
  8  9  1  0  0  0  0
  8 10  1  0  0  0  0
  8 11  1  0  0  0  0
 12 13  1  0  0  0  0
 12 14  1  0  0  0  0
 12 15  1  0  0  0  0
 15 16  1  0  0  0  0
 15 17  1  0  0  0  0
 15 18  1  0  0  0  0
M  END
$$$$
