Title Card Required
 OpenBabel05152619573D

 21 20  0  0  0  0  0  0  0  0999 V2000
    0.1725    0.9861    0.3932 C   0  0  0  0  0  0  0  0  0  0  0  0
    0.1670    0.8543    1.7285 F   0  0  0  0  0  0  0  0  0  0  0  0
   -0.1615    2.2471    0.0849 F   0  0  0  0  0  0  0  0  0  0  0  0
    1.5592    0.7126   -0.1686 C   0  0  0  0  0  0  0  0  0  0  0  0
    1.8227    1.4223   -1.2523 F   0  0  0  0  0  0  0  0  0  0  0  0
    2.4335   -0.1497    0.3310 C   0  0  0  0  0  0  0  0  0  0  0  0
    2.1390   -0.8781    1.3970 F   0  0  0  0  0  0  0  0  0  0  0  0
    3.8227   -0.4577   -0.1794 C   0  0  0  0  0  0  0  0  0  0  0  0
    4.7150   -0.2417    0.7888 F   0  0  0  0  0  0  0  0  0  0  0  0
    4.1528    0.2809   -1.2285 F   0  0  0  0  0  0  0  0  0  0  0  0
    3.9015   -1.7443   -0.5249 F   0  0  0  0  0  0  0  0  0  0  0  0
   -0.8927    0.0202   -0.2090 C   0  0  0  0  0  0  0  0  0  0  0  0
   -0.9862    0.2892   -1.5207 F   0  0  0  0  0  0  0  0  0  0  0  0
   -0.4458   -1.2359   -0.0614 F   0  0  0  0  0  0  0  0  0  0  0  0
   -2.3035    0.1108    0.4461 C   0  0  0  0  0  0  0  0  0  0  0  0
   -2.6502    1.3946    0.6054 F   0  0  0  0  0  0  0  0  0  0  0  0
   -2.2539   -0.4804    1.6448 F   0  0  0  0  0  0  0  0  0  0  0  0
   -3.4319   -0.5788   -0.3768 C   0  0  0  0  0  0  0  0  0  0  0  0
   -3.6861    0.0987   -1.4866 F   0  0  0  0  0  0  0  0  0  0  0  0
   -3.0871   -1.8208   -0.6937 F   0  0  0  0  0  0  0  0  0  0  0  0
   -4.5337   -0.6148    0.3612 F   0  0  0  0  0  0  0  0  0  0  0  0
  1  2  1  0  0  0  0
  1  3  1  0  0  0  0
  1  4  1  0  0  0  0
  1 12  1  0  0  0  0
  4  5  1  0  0  0  0
  4  6  2  0  0  0  0
  6  7  1  0  0  0  0
  6  8  1  0  0  0  0
  8  9  1  0  0  0  0
  8 10  1  0  0  0  0
  8 11  1  0  0  0  0
 12 13  1  0  0  0  0
 12 14  1  0  0  0  0
 12 15  1  0  0  0  0
 15 16  1  0  0  0  0
 15 17  1  0  0  0  0
 15 18  1  0  0  0  0
 18 19  1  0  0  0  0
 18 20  1  0  0  0  0
 18 21  1  0  0  0  0
M  END
$$$$
