/home/yang/projects/t99_calc/v1/qchem_data/combined/log_fchk/2_octene.log
 OpenBabel05152619573D
Gaussian applications/g16/g16/g16 # opt wb97xd/6-311+g(2d,2p) geom=connectivity 
 24 23  0  0  0  0  0  0  0  0999 V2000
    0.8758   -0.9540   -0.5573 C   0  0  0  0  0  0  0  0  0  0  0  0
    0.8143   -0.5452   -1.8341 F   0  0  0  0  0  0  0  0  0  0  0  0
    0.6288   -2.2706   -0.5151 F   0  0  0  0  0  0  0  0  0  0  0  0
    2.2631   -0.7142    0.0183 C   0  0  0  0  0  0  0  0  0  0  0  0
    2.6045   -1.6147    0.9239 F   0  0  0  0  0  0  0  0  0  0  0  0
    3.0682    0.2869   -0.3088 C   0  0  0  0  0  0  0  0  0  0  0  0
    2.6954    1.2005   -1.1920 F   0  0  0  0  0  0  0  0  0  0  0  0
    4.4539    0.5702    0.2248 C   0  0  0  0  0  0  0  0  0  0  0  0
    5.3246    0.6122   -0.7855 F   0  0  0  0  0  0  0  0  0  0  0  0
    4.8599   -0.3446    1.0926 F   0  0  0  0  0  0  0  0  0  0  0  0
    4.4710    1.7618    0.8255 F   0  0  0  0  0  0  0  0  0  0  0  0
   -0.2230   -0.2064    0.2588 C   0  0  0  0  0  0  0  0  0  0  0  0
   -0.2737   -0.7666    1.4769 F   0  0  0  0  0  0  0  0  0  0  0  0
    0.1561    1.0730    0.3890 F   0  0  0  0  0  0  0  0  0  0  0  0
   -1.6426   -0.2301   -0.3907 C   0  0  0  0  0  0  0  0  0  0  0  0
   -1.8895   -1.4503   -0.8822 F   0  0  0  0  0  0  0  0  0  0  0  0
   -1.6562    0.6525   -1.3983 F   0  0  0  0  0  0  0  0  0  0  0  0
   -2.7804    0.1276    0.6158 C   0  0  0  0  0  0  0  0  0  0  0  0
   -3.0054   -0.9302    1.4021 F   0  0  0  0  0  0  0  0  0  0  0  0
   -2.4003    1.1658    1.3735 F   0  0  0  0  0  0  0  0  0  0  0  0
   -4.1294    0.5109   -0.0619 C   0  0  0  0  0  0  0  0  0  0  0  0
   -4.4795   -0.4067   -0.9548 F   0  0  0  0  0  0  0  0  0  0  0  0
   -4.0386    1.6889   -0.6603 F   0  0  0  0  0  0  0  0  0  0  0  0
   -5.0683    0.5803    0.8727 F   0  0  0  0  0  0  0  0  0  0  0  0
  1  3  1  0  0  0  0
  1  4  1  0  0  0  0
  1 12  1  0  0  0  0
  2  1  1  0  0  0  0
  4  5  1  0  0  0  0
  6  4  2  0  0  0  0
  6  8  1  0  0  0  0
  7  6  1  0  0  0  0
  8 11  1  0  0  0  0
  8 10  1  0  0  0  0
  9  8  1  0  0  0  0
 12 14  1  0  0  0  0
 12 13  1  0  0  0  0
 15 12  1  0  0  0  0
 15 18  1  0  0  0  0
 16 15  1  0  0  0  0
 17 15  1  0  0  0  0
 18 20  1  0  0  0  0
 18 19  1  0  0  0  0
 21 18  1  0  0  0  0
 21 24  1  0  0  0  0
 22 21  1  0  0  0  0
 23 21  1  0  0  0  0
M  END
>  <program>
Gaussian 16, Revision A.03

>  <basis>
6-311+G(2d,2p) (5D, 7F)

>  <File Format>
g03

$$$$
