/home/yang/projects/t99_calc/v1/qchem_data/combined/log_fchk/2_octyl.log
 OpenBabel05152619573D
Gaussian applications/g16/g16/g16 # opt freq uwb97xd/6-311+g(2d,2p) geom=connect
 25 24  0  0  1  0  0  0  0  0999 V2000
    0.8564    0.0570    0.3187 C   0  0  0  0  0  0  0  0  0  0  0  0
    0.9043   -1.2777    0.2006 F   0  0  0  0  0  0  0  0  0  0  0  0
    0.9312    0.3783    1.6191 F   0  0  0  0  0  0  0  0  0  0  0  0
    2.1241    0.6359   -0.3836 C   0  0  0  0  0  0  0  0  0  0  0  0
    2.2104    0.1203   -1.6198 F   0  0  0  0  0  0  0  0  0  0  0  0
    1.9835    1.9731   -0.4717 F   0  0  0  0  0  0  0  0  0  0  0  0
    3.3805    0.3178    0.3742 C   0  0  2  0  0  3  0  0  0  0  0  0
    3.7270    1.1650    1.3129 F   0  0  0  0  0  0  0  0  0  0  0  0
   -0.5000    0.5842   -0.2455 C   0  0  0  0  0  0  0  0  0  0  0  0
   -0.4328    0.6265   -1.5816 F   0  0  0  0  0  0  0  0  0  0  0  0
   -0.6959    1.8237    0.2215 F   0  0  0  0  0  0  0  0  0  0  0  0
    4.4257   -0.6753   -0.0384 C   0  0  0  0  0  0  0  0  0  0  0  0
    5.2328   -0.1879   -0.9913 F   0  0  0  0  0  0  0  0  0  0  0  0
    5.1842   -0.9893    1.0090 F   0  0  0  0  0  0  0  0  0  0  0  0
    3.8631   -1.7843   -0.5110 F   0  0  0  0  0  0  0  0  0  0  0  0
   -1.7163   -0.3110    0.1580 C   0  0  0  0  0  0  0  0  0  0  0  0
   -1.5835   -0.6806    1.4388 F   0  0  0  0  0  0  0  0  0  0  0  0
   -1.7103   -1.4056   -0.6133 F   0  0  0  0  0  0  0  0  0  0  0  0
   -3.0887    0.4148    0.0008 C   0  0  0  0  0  0  0  0  0  0  0  0
   -3.2428    1.2686    1.0179 F   0  0  0  0  0  0  0  0  0  0  0  0
   -3.1068    1.0962   -1.1530 F   0  0  0  0  0  0  0  0  0  0  0  0
   -4.3152   -0.5455   -0.0018 C   0  0  0  0  0  0  0  0  0  0  0  0
   -5.4223    0.1801    0.0849 F   0  0  0  0  0  0  0  0  0  0  0  0
   -4.2612   -1.3718    1.0359 F   0  0  0  0  0  0  0  0  0  0  0  0
   -4.3585   -1.2532   -1.1204 F   0  0  0  0  0  0  0  0  0  0  0  0
  1  3  1  0  0  0  0
  2  1  1  0  0  0  0
  4  1  1  0  0  0  0
  4  7  1  0  0  0  0
  5  4  1  0  0  0  0
  6  4  1  0  0  0  0
  7  8  1  6  0  0  0
  9 16  1  0  0  0  0
  9 11  1  0  0  0  0
  9  1  1  0  0  0  0
 10  9  1  0  0  0  0
 12  7  1  0  0  0  0
 12 14  1  0  0  0  0
 13 12  1  0  0  0  0
 15 12  1  0  0  0  0
 16 17  1  0  0  0  0
 18 16  1  0  0  0  0
 19 16  1  0  0  0  0
 19 20  1  0  0  0  0
 21 19  1  0  0  0  0
 22 19  1  0  0  0  0
 22 23  1  0  0  0  0
 22 24  1  0  0  0  0
 25 22  1  0  0  0  0
M  END
>  <program>
Gaussian 16, Revision A.03

>  <basis>
6-311+G(2d,2p) (5D, 7F)

>  <File Format>
g03

$$$$
