/home/yang/projects/t99_calc/v1/qchem_data/combined/log_fchk/2_pentyl.log
 OpenBabel05152619573D
Gaussian 16 # opt uwb97xd/6-311+g(2d,2p) geom=connectivity scf=xqc freq
 16 15  0  0  1  0  0  0  0  0999 V2000
    2.7209   -0.1454   -0.0671 C   0  0  0  0  0  0  0  0  0  0  0  0
    3.5346    0.4338   -0.9507 F   0  0  0  0  0  0  0  0  0  0  0  0
    3.2466    0.0508    1.1484 F   0  0  0  0  0  0  0  0  0  0  0  0
    2.6898   -1.4517   -0.3026 F   0  0  0  0  0  0  0  0  0  0  0  0
    1.3443    0.4479   -0.1625 C   0  0  2  0  0  3  0  0  0  0  0  0
    1.3087    1.7461    0.0471 F   0  0  0  0  0  0  0  0  0  0  0  0
    0.0846   -0.3332    0.0773 C   0  0  0  0  0  0  0  0  0  0  0  0
    0.1065   -0.8999    1.3072 F   0  0  0  0  0  0  0  0  0  0  0  0
    0.0008   -1.3313   -0.8230 F   0  0  0  0  0  0  0  0  0  0  0  0
   -1.1932    0.5464   -0.0320 C   0  0  0  0  0  0  0  0  0  0  0  0
   -1.1359    1.2444   -1.1769 F   0  0  0  0  0  0  0  0  0  0  0  0
   -1.2223    1.3949    1.0031 F   0  0  0  0  0  0  0  0  0  0  0  0
   -2.5362   -0.2413   -0.0350 C   0  0  0  0  0  0  0  0  0  0  0  0
   -2.6171   -1.0409    1.0196 F   0  0  0  0  0  0  0  0  0  0  0  0
   -3.5335    0.6336    0.0133 F   0  0  0  0  0  0  0  0  0  0  0  0
   -2.6584   -0.9627   -1.1392 F   0  0  0  0  0  0  0  0  0  0  0  0
  1  3  1  0  0  0  0
  2  1  1  0  0  0  0
  4  1  1  0  0  0  0
  5  1  1  0  0  0  0
  5  6  1  1  0  0  0
  5  7  1  0  0  0  0
  7  8  1  0  0  0  0
  9  7  1  0  0  0  0
 10  7  1  0  0  0  0
 10 12  1  0  0  0  0
 11 10  1  0  0  0  0
 13 10  1  0  0  0  0
 13 15  1  0  0  0  0
 13 14  1  0  0  0  0
 16 13  1  0  0  0  0
M  END
>  <program>
Gaussian 16, Revision A.03

>  <basis>
6-311+G(2d,2p) (5D, 7F)

>  <File Format>
g03

$$$$
