/home/yang/projects/t99_calc/v1/qchem_data/combined/log_fchk/2_propyl.log
 OpenBabel05152619573D
Gaussian applications/g16/g16/g16 # opt uwb97xd/6-311+g(2d,2p) geom=connectivity
 10  9  0  0  0  0  0  0  0  0999 V2000
   -0.0034    0.5434   -0.2276 C   0  0  0  0  0  3  0  0  0  0  0  0
   -0.0305    1.8449   -0.0508 F   0  0  0  0  0  0  0  0  0  0  0  0
   -1.3234   -0.1397   -0.0255 C   0  0  0  0  0  0  0  0  0  0  0  0
    1.3308   -0.1215   -0.0262 C   0  0  0  0  0  0  0  0  0  0  0  0
    1.4631   -0.6024    1.2188 F   0  0  0  0  0  0  0  0  0  0  0  0
    2.3053    0.7566   -0.2334 F   0  0  0  0  0  0  0  0  0  0  0  0
    1.4848   -1.1412   -0.8680 F   0  0  0  0  0  0  0  0  0  0  0  0
   -1.7785    0.0403    1.2209 F   0  0  0  0  0  0  0  0  0  0  0  0
   -1.2099   -1.4458   -0.2428 F   0  0  0  0  0  0  0  0  0  0  0  0
   -2.2369    0.3595   -0.8584 F   0  0  0  0  0  0  0  0  0  0  0  0
  1  2  1  0  0  0  0
  1  4  1  0  0  0  0
  1  3  1  0  0  0  0
  3  8  1  0  0  0  0
  4  5  1  0  0  0  0
  6  4  1  0  0  0  0
  7  4  1  0  0  0  0
  9  3  1  0  0  0  0
 10  3  1  0  0  0  0
M  END
>  <program>
Gaussian 16, Revision A.03

>  <basis>
6-311+G(2d,2p) (5D, 7F)

>  <File Format>
g03

$$$$
