/home/yang/projects/t99_calc/v1/qchem_data/combined/log_fchk/2butene.log
 OpenBabel05152619573D
Gaussian applications/g16/g16/g16 # opt freq wb97xd/6-311+g(2d) geom=connectivit
 12 11  0  0  0  0  0  0  0  0999 V2000
   -1.9842   -0.0767    0.0000 C   0  0  0  0  0  0  0  0  0  0  0  0
   -2.6073    0.4038    1.0779 F   0  0  0  0  0  0  0  0  0  0  0  0
   -2.6076    0.4046   -1.0775 F   0  0  0  0  0  0  0  0  0  0  0  0
   -2.1017   -1.3959   -0.0004 F   0  0  0  0  0  0  0  0  0  0  0  0
    0.5422   -0.3811   -0.0000 C   0  0  0  0  0  0  0  0  0  0  0  0
    0.4638   -1.7027   -0.0001 F   0  0  0  0  0  0  0  0  0  0  0  0
    1.9842    0.0767   -0.0000 C   0  0  0  0  0  0  0  0  0  0  0  0
    2.6073   -0.4038   -1.0779 F   0  0  0  0  0  0  0  0  0  0  0  0
    2.6076   -0.4046    1.0775 F   0  0  0  0  0  0  0  0  0  0  0  0
    2.1017    1.3959    0.0004 F   0  0  0  0  0  0  0  0  0  0  0  0
   -0.5422    0.3811    0.0000 C   0  0  0  0  0  0  0  0  0  0  0  0
   -0.4638    1.7027    0.0001 F   0  0  0  0  0  0  0  0  0  0  0  0
  1 11  1  0  0  0  0
  1  2  1  0  0  0  0
  3  1  1  0  0  0  0
  4  1  1  0  0  0  0
  5  7  1  0  0  0  0
  5 11  2  0  0  0  0
  6  5  1  0  0  0  0
  7 10  1  0  0  0  0
  7  9  1  0  0  0  0
  8  7  1  0  0  0  0
 11 12  1  0  0  0  0
M  END
>  <program>
Gaussian 16, Revision A.03

>  <basis>
6-311+G(2d) (5D, 7F)

>  <File Format>
g03

$$$$
