/home/yang/projects/t99_calc/v1/qchem_data/combined/log_fchk/2Hbutane.log
 OpenBabel05152619573D
Gaussian applications/g16/g16/g16 # freq wb97xd/6-311+g(2d,2p) geom=connectivity
 14 13  0  0  1  0  0  0  0  0999 V2000
   -2.0136   -0.0266   -0.0892 C   0  0  0  0  0  0  0  0  0  0  0  0
   -2.8852    0.8245   -0.6334 F   0  0  0  0  0  0  0  0  0  0  0  0
   -2.2136   -1.2271   -0.6300 F   0  0  0  0  0  0  0  0  0  0  0  0
   -2.2635   -0.0970    1.2115 F   0  0  0  0  0  0  0  0  0  0  0  0
   -0.5924    0.4738   -0.3866 C   0  0  1  0  0  0  0  0  0  0  0  0
   -0.4624    1.7096    0.1739 F   0  0  0  0  0  0  0  0  0  0  0  0
    0.5270   -0.4400    0.1337 C   0  0  0  0  0  0  0  0  0  0  0  0
    0.4632   -1.6111   -0.5269 F   0  0  0  0  0  0  0  0  0  0  0  0
    0.4059   -0.6783    1.4467 F   0  0  0  0  0  0  0  0  0  0  0  0
    1.9471    0.1425   -0.1099 C   0  0  0  0  0  0  0  0  0  0  0  0
    2.8565   -0.7877    0.1430 F   0  0  0  0  0  0  0  0  0  0  0  0
    2.1789    1.1886    0.6661 F   0  0  0  0  0  0  0  0  0  0  0  0
    2.0629    0.5171   -1.3862 F   0  0  0  0  0  0  0  0  0  0  0  0
   -0.4924    0.5533   -1.4695 H   0  0  0  0  0  0  0  0  0  0  0  0
  1  4  1  0  0  0  0
  2  1  1  0  0  0  0
  3  1  1  0  0  0  0
  5 14  1  6  0  0  0
  5  1  1  0  0  0  0
  5  7  1  0  0  0  0
  5  6  1  0  0  0  0
  7  9  1  0  0  0  0
  8  7  1  0  0  0  0
 10  7  1  0  0  0  0
 10 11  1  0  0  0  0
 10 12  1  0  0  0  0
 13 10  1  0  0  0  0
M  END
>  <program>
Gaussian 16, Revision A.03

>  <basis>
6-311+G(2d,2p) (5D, 7F)

>  <File Format>
g03

$$$$
