/home/yang/projects/t99_calc/v1/qchem_data/combined/log_fchk/31_butene.log
 OpenBabel05152619573D
Gaussian applications/g16/g16/g16 # opt freq wb97xd/6-311+g(2d,2p) geom=connecti
 12 11  0  0  0  0  0  0  0  0999 V2000
    0.1661    0.4335    0.3919 C   0  0  0  0  0  0  0  0  0  0  0  0
    0.0520    0.2653    1.7241 F   0  0  0  0  0  0  0  0  0  0  0  0
    0.1167    1.7517    0.1221 F   0  0  0  0  0  0  0  0  0  0  0  0
    1.4751   -0.1402   -0.0924 C   0  0  0  0  0  0  0  0  0  0  0  0
    1.6697   -1.3811    0.3590 F   0  0  0  0  0  0  0  0  0  0  0  0
   -1.0859   -0.2055   -0.2642 C   0  0  0  0  0  0  0  0  0  0  0  0
   -1.1350   -1.5082   -0.0136 F   0  0  0  0  0  0  0  0  0  0  0  0
   -1.0452   -0.0252   -1.5825 F   0  0  0  0  0  0  0  0  0  0  0  0
    2.3412    0.4735   -0.8669 C   0  0  0  0  0  0  0  0  0  0  0  0
    2.1415    1.4748   -1.2110 H   0  0  0  0  0  0  0  0  0  0  0  0
    3.2550   -0.0211   -1.1591 H   0  0  0  0  0  0  0  0  0  0  0  0
   -2.1887    0.3617    0.2085 F   0  0  0  0  0  0  0  0  0  0  0  0
  1  2  1  0  0  0  0
  3  1  1  0  0  0  0
  4  5  1  0  0  0  0
  4  1  1  0  0  0  0
  6  7  1  0  0  0  0
  6 12  1  0  0  0  0
  6  1  1  0  0  0  0
  8  6  1  0  0  0  0
  9  4  2  0  0  0  0
 10  9  1  0  0  0  0
 11  9  1  0  0  0  0
M  END
>  <program>
Gaussian 16, Revision A.03

>  <basis>
6-311+G(2d,2p) (5D, 7F)

>  <File Format>
g03

$$$$
