/home/yang/projects/t99_calc/v1/qchem_data/combined/log_fchk/32_ftsa.log
 OpenBabel05152619573D
Gaussian applications/g16/g16/g16 # opt freq wb97xd/6-311+g(2d,2p) geom=connecti
 22 21  0  0  0  0  0  0  0  0999 V2000
   -0.5817   -0.4526   -0.0313 C   0  0  0  0  0  0  0  0  0  0  0  0
   -0.6854   -1.1040   -1.2155 F   0  0  0  0  0  0  0  0  0  0  0  0
   -0.7257   -1.3780    0.9468 F   0  0  0  0  0  0  0  0  0  0  0  0
    0.7605    0.2362    0.0799 C   0  0  0  0  0  0  0  0  0  0  0  0
    1.8970   -0.7667   -0.0295 C   0  0  0  0  0  0  0  0  0  0  0  0
   -1.7657    0.5426    0.0715 C   0  0  0  0  0  0  0  0  0  0  0  0
   -3.1940   -0.0588   -0.0334 C   0  0  0  0  0  0  0  0  0  0  0  0
   -1.6409    1.4514   -0.9129 F   0  0  0  0  0  0  0  0  0  0  0  0
   -1.6840    1.1785    1.2531 F   0  0  0  0  0  0  0  0  0  0  0  0
   -3.3702   -0.6605   -1.2019 F   0  0  0  0  0  0  0  0  0  0  0  0
   -3.4142   -0.9303    0.9410 F   0  0  0  0  0  0  0  0  0  0  0  0
    3.4961    0.0130    0.1219 S   0  0  0  0  0  0  0  0  0  0  0  0
    4.4806   -1.0178   -0.0526 O   0  0  0  0  0  0  0  0  0  0  0  0
    3.4707    0.8593    1.2846 O   0  0  0  0  0  0  0  0  0  0  0  0
    3.5403    1.0148   -1.2041 N   0  0  0  0  0  0  0  0  0  0  0  0
    3.7287    1.9629   -0.9097 H   0  0  0  0  0  0  0  0  0  0  0  0
    4.2250    0.6861   -1.8706 H   0  0  0  0  0  0  0  0  0  0  0  0
    1.8763   -1.4997    0.7755 H   0  0  0  0  0  0  0  0  0  0  0  0
    0.8055    0.7550    1.0357 H   0  0  0  0  0  0  0  0  0  0  0  0
    0.8295    0.9756   -0.7166 H   0  0  0  0  0  0  0  0  0  0  0  0
    1.9015   -1.2912   -0.9822 H   0  0  0  0  0  0  0  0  0  0  0  0
   -4.0789    0.9278    0.0724 F   0  0  0  0  0  0  0  0  0  0  0  0
  1  6  1  0  0  0  0
  1  4  1  0  0  0  0
  1  3  1  0  0  0  0
  2  1  1  0  0  0  0
  4 19  1  0  0  0  0
  5  4  1  0  0  0  0
  5 12  1  0  0  0  0
  5 18  1  0  0  0  0
  6  9  1  0  0  0  0
  7  6  1  0  0  0  0
  7 22  1  0  0  0  0
  7 11  1  0  0  0  0
  8  6  1  0  0  0  0
 10  7  1  0  0  0  0
 12 14  2  0  0  0  0
 13 12  2  0  0  0  0
 15 16  1  0  0  0  0
 15 12  1  0  0  0  0
 17 15  1  0  0  0  0
 20  4  1  0  0  0  0
 21  5  1  0  0  0  0
M  END
>  <program>
Gaussian 16, Revision A.03

>  <basis>
6-311+G(2d,2p) (5D, 7F)

>  <File Format>
g03

$$$$
