/home/yang/projects/t99_calc/v1/qchem_data/combined/log_fchk/32ftoh.log
 OpenBabel05152619573D
Gaussian 16 # opt freq wb97xd/6-311+g(2d) geom=connectivity
 18 17  0  0  0  0  0  0  0  0999 V2000
   -0.6511    0.5759   -0.0001 C   0  0  0  0  0  0  0  0  0  0  0  0
   -0.6203    1.3612    1.0916 F   0  0  0  0  0  0  0  0  0  0  0  0
   -0.6204    1.3609   -1.0921 F   0  0  0  0  0  0  0  0  0  0  0  0
    0.6173   -0.3162   -0.0001 C   0  0  0  0  0  0  0  0  0  0  0  0
    0.5545   -1.1216    1.0900 F   0  0  0  0  0  0  0  0  0  0  0  0
    0.5547   -1.1210   -1.0907 F   0  0  0  0  0  0  0  0  0  0  0  0
    1.8940    0.4880    0.0002 C   0  0  0  0  0  0  0  0  0  0  0  0
   -2.0207   -0.1567    0.0001 C   0  0  0  0  0  0  0  0  0  0  0  0
   -2.1559   -0.9140    1.0805 F   0  0  0  0  0  0  0  0  0  0  0  0
   -2.1558   -0.9149   -1.0795 F   0  0  0  0  0  0  0  0  0  0  0  0
    3.1347   -0.3876    0.0002 C   0  0  0  0  0  0  0  0  0  0  0  0
    4.2393    0.4944    0.0005 O   0  0  0  0  0  0  0  0  0  0  0  0
    5.0461   -0.0250   -0.0021 H   0  0  0  0  0  0  0  0  0  0  0  0
    3.1440   -1.0300   -0.8860 H   0  0  0  0  0  0  0  0  0  0  0  0
    3.1439   -1.0302    0.8864 H   0  0  0  0  0  0  0  0  0  0  0  0
    1.9029    1.1324   -0.8794 H   0  0  0  0  0  0  0  0  0  0  0  0
    1.9026    1.1321    0.8801 H   0  0  0  0  0  0  0  0  0  0  0  0
   -2.9900    0.7544   -0.0003 F   0  0  0  0  0  0  0  0  0  0  0  0
  1  8  1  0  0  0  0
  1  2  1  0  0  0  0
  3  1  1  0  0  0  0
  4  1  1  0  0  0  0
  4  7  1  0  0  0  0
  4  5  1  0  0  0  0
  6  4  1  0  0  0  0
  7 11  1  0  0  0  0
  7 17  1  0  0  0  0
  8  9  1  0  0  0  0
 10  8  1  0  0  0  0
 11 12  1  0  0  0  0
 11 15  1  0  0  0  0
 13 12  1  0  0  0  0
 14 11  1  0  0  0  0
 16  7  1  0  0  0  0
 18  8  1  0  0  0  0
M  END
>  <program>
Gaussian 16, Revision A.03

>  <basis>
6-311+G(2d) (5D, 7F)

>  <File Format>
g03

$$$$
