/home/yang/projects/t99_calc/v1/qchem_data/combined/log_fchk/3_heptyl.log
 OpenBabel05152619573D
Gaussian applications/g16/g16/g16 # opt freq uwb97xd/6-311+g(2d,2p) geom=connect
 22 21  0  0  1  0  0  0  0  0999 V2000
   -2.7930    0.4310   -0.0862 C   0  0  0  0  0  0  0  0  0  0  0  0
   -3.7669    0.9499    0.6809 F   0  0  0  0  0  0  0  0  0  0  0  0
   -3.0164    0.7733   -1.3666 F   0  0  0  0  0  0  0  0  0  0  0  0
   -1.4782    0.9878    0.3818 C   0  0  1  0  0  3  0  0  0  0  0  0
   -1.4239    1.3485    1.6440 F   0  0  0  0  0  0  0  0  0  0  0  0
   -0.1791    1.0458   -0.3613 C   0  0  0  0  0  0  0  0  0  0  0  0
    0.2257    2.3299   -0.4631 F   0  0  0  0  0  0  0  0  0  0  0  0
   -0.3432    0.5489   -1.5963 F   0  0  0  0  0  0  0  0  0  0  0  0
    0.9556    0.2436    0.3592 C   0  0  0  0  0  0  0  0  0  0  0  0
    0.4382   -0.9240    0.7734 F   0  0  0  0  0  0  0  0  0  0  0  0
    1.3515    0.9410    1.4323 F   0  0  0  0  0  0  0  0  0  0  0  0
    2.1886   -0.0620   -0.5433 C   0  0  0  0  0  0  0  0  0  0  0  0
    2.5138    1.0319   -1.2450 F   0  0  0  0  0  0  0  0  0  0  0  0
    1.8671   -1.0469   -1.3889 F   0  0  0  0  0  0  0  0  0  0  0  0
    3.4559   -0.5092    0.2437 C   0  0  0  0  0  0  0  0  0  0  0  0
    4.3632   -0.9419   -0.6218 F   0  0  0  0  0  0  0  0  0  0  0  0
    3.9694    0.5032    0.9262 F   0  0  0  0  0  0  0  0  0  0  0  0
    3.1584   -1.4946    1.0824 F   0  0  0  0  0  0  0  0  0  0  0  0
   -2.9120   -1.1155    0.0129 C   0  0  0  0  0  0  0  0  0  0  0  0
   -2.6878   -1.4983    1.2663 F   0  0  0  0  0  0  0  0  0  0  0  0
   -2.0172   -1.6936   -0.7798 F   0  0  0  0  0  0  0  0  0  0  0  0
   -4.1238   -1.5083   -0.3484 F   0  0  0  0  0  0  0  0  0  0  0  0
  1 19  1  0  0  0  0
  1  4  1  0  0  0  0
  1  2  1  0  0  0  0
  3  1  1  0  0  0  0
  4  5  1  1  0  0  0
  6  9  1  0  0  0  0
  6  4  1  0  0  0  0
  7  6  1  0  0  0  0
  8  6  1  0  0  0  0
  9 10  1  0  0  0  0
  9 11  1  0  0  0  0
 12 15  1  0  0  0  0
 12  9  1  0  0  0  0
 13 12  1  0  0  0  0
 14 12  1  0  0  0  0
 15 17  1  0  0  0  0
 15 18  1  0  0  0  0
 16 15  1  0  0  0  0
 19 20  1  0  0  0  0
 21 19  1  0  0  0  0
 22 19  1  0  0  0  0
M  END
>  <program>
Gaussian 16, Revision A.03

>  <basis>
6-311+G(2d,2p) (5D, 7F)

>  <File Format>
g03

$$$$
