/home/yang/projects/t99_calc/v1/qchem_data/combined/log_fchk/3_octyl.log
 OpenBabel05152619573D
Gaussian 16 # opt freq uwb97xd/6-311+g(2d,2p) geom=connectivity scf=xqc
 25 24  0  0  1  0  0  0  0  0999 V2000
    3.4239   -0.2389   -0.2096 C   0  0  0  0  0  0  0  0  0  0  0  0
    4.4827   -0.7710    0.4244 F   0  0  0  0  0  0  0  0  0  0  0  0
    3.6088   -0.3481   -1.5365 F   0  0  0  0  0  0  0  0  0  0  0  0
    2.1954   -0.9956    0.2099 C   0  0  1  0  0  3  0  0  0  0  0  0
    2.2432   -1.5559    1.3973 F   0  0  0  0  0  0  0  0  0  0  0  0
    0.8698   -1.0672   -0.4835 C   0  0  0  0  0  0  0  0  0  0  0  0
    0.5831   -2.3533   -0.7772 F   0  0  0  0  0  0  0  0  0  0  0  0
    0.9212   -0.3668   -1.6265 F   0  0  0  0  0  0  0  0  0  0  0  0
   -0.2951   -0.5069    0.4003 C   0  0  0  0  0  0  0  0  0  0  0  0
    0.1350    0.6260    0.9773 F   0  0  0  0  0  0  0  0  0  0  0  0
   -0.5678   -1.4024    1.3579 F   0  0  0  0  0  0  0  0  0  0  0  0
   -1.5979   -0.1892   -0.3985 C   0  0  0  0  0  0  0  0  0  0  0  0
   -1.8282   -1.1746   -1.2750 F   0  0  0  0  0  0  0  0  0  0  0  0
   -1.4133    0.9555   -1.0690 F   0  0  0  0  0  0  0  0  0  0  0  0
   -2.8551   -0.0458    0.5150 C   0  0  0  0  0  0  0  0  0  0  0  0
   -3.2551   -1.2649    0.8907 F   0  0  0  0  0  0  0  0  0  0  0  0
   -2.5390    0.6688    1.6042 F   0  0  0  0  0  0  0  0  0  0  0  0
    3.4014    1.2761    0.1371 C   0  0  0  0  0  0  0  0  0  0  0  0
    3.2085    1.4296    1.4436 F   0  0  0  0  0  0  0  0  0  0  0  0
    2.4160    1.8798   -0.5169 F   0  0  0  0  0  0  0  0  0  0  0  0
    4.5503    1.8422   -0.1991 F   0  0  0  0  0  0  0  0  0  0  0  0
   -4.0620    0.6580   -0.1735 C   0  0  0  0  0  0  0  0  0  0  0  0
   -4.3191    0.0973   -1.3489 F   0  0  0  0  0  0  0  0  0  0  0  0
   -5.1281    0.5297    0.6054 F   0  0  0  0  0  0  0  0  0  0  0  0
   -3.8185    1.9478   -0.3499 F   0  0  0  0  0  0  0  0  0  0  0  0
  1 18  1  0  0  0  0
  1  4  1  0  0  0  0
  1  2  1  0  0  0  0
  3  1  1  0  0  0  0
  4  5  1  1  0  0  0
  6  4  1  0  0  0  0
  6  9  1  0  0  0  0
  7  6  1  0  0  0  0
  8  6  1  0  0  0  0
  9 10  1  0  0  0  0
  9 11  1  0  0  0  0
 12  9  1  0  0  0  0
 12 15  1  0  0  0  0
 13 12  1  0  0  0  0
 14 12  1  0  0  0  0
 15 16  1  0  0  0  0
 15 17  1  0  0  0  0
 18 19  1  0  0  0  0
 20 18  1  0  0  0  0
 21 18  1  0  0  0  0
 22 15  1  0  0  0  0
 22 24  1  0  0  0  0
 23 22  1  0  0  0  0
 25 22  1  0  0  0  0
M  END
>  <program>
Gaussian 16, Revision A.03

>  <basis>
6-311+G(2d,2p) (5D, 7F)

>  <File Format>
g03

$$$$
