/home/yang/projects/t99_calc/v1/qchem_data/combined/log_fchk/3_pentyl.log
 OpenBabel05152619573D
Gaussian applications/g16/g16/g16 # opt freq uwb97xd/6-311+g(2d,2p) geom=connect
 19 18  0  0  1  0  0  0  0  0999 V2000
   -2.1247    0.5377   -0.2698 C   0  0  0  0  0  0  0  0  0  0  0  0
   -3.0682    1.3156    0.2875 F   0  0  0  0  0  0  0  0  0  0  0  0
   -2.2159    0.6312   -1.6077 F   0  0  0  0  0  0  0  0  0  0  0  0
   -0.7802    1.0188    0.1982 C   0  0  1  0  0  3  0  0  0  0  0  0
   -0.7625    1.6331    1.3592 F   0  0  0  0  0  0  0  0  0  0  0  0
    0.5579    0.7818   -0.4305 C   0  0  0  0  0  0  0  0  0  0  0  0
    1.1178    1.9640   -0.7693 F   0  0  0  0  0  0  0  0  0  0  0  0
    0.4086    0.0481   -1.5438 F   0  0  0  0  0  0  0  0  0  0  0  0
    1.5490    0.0474    0.5270 C   0  0  0  0  0  0  0  0  0  0  0  0
    0.9010   -0.9830    1.0953 F   0  0  0  0  0  0  0  0  0  0  0  0
    1.9325    0.8988    1.4848 F   0  0  0  0  0  0  0  0  0  0  0  0
    2.8273   -0.5192   -0.1537 C   0  0  0  0  0  0  0  0  0  0  0  0
    3.4359    0.4231   -0.8622 F   0  0  0  0  0  0  0  0  0  0  0  0
    2.5251   -1.5349   -0.9488 F   0  0  0  0  0  0  0  0  0  0  0  0
   -2.4559   -0.9295    0.1214 C   0  0  0  0  0  0  0  0  0  0  0  0
   -2.3674   -1.0669    1.4410 F   0  0  0  0  0  0  0  0  0  0  0  0
   -1.5963   -1.7609   -0.4556 F   0  0  0  0  0  0  0  0  0  0  0  0
   -3.6830   -1.2435   -0.2643 F   0  0  0  0  0  0  0  0  0  0  0  0
    3.6567   -0.9495    0.7889 F   0  0  0  0  0  0  0  0  0  0  0  0
  1 15  1  0  0  0  0
  1  4  1  0  0  0  0
  1  2  1  0  0  0  0
  3  1  1  0  0  0  0
  4  5  1  1  0  0  0
  6  4  1  0  0  0  0
  6  9  1  0  0  0  0
  7  6  1  0  0  0  0
  8  6  1  0  0  0  0
  9 10  1  0  0  0  0
  9 11  1  0  0  0  0
 12  9  1  0  0  0  0
 12 19  1  0  0  0  0
 13 12  1  0  0  0  0
 14 12  1  0  0  0  0
 15 16  1  0  0  0  0
 17 15  1  0  0  0  0
 18 15  1  0  0  0  0
M  END
>  <program>
Gaussian 16, Revision A.03

>  <basis>
6-311+G(2d,2p) (5D, 7F)

>  <File Format>
g03

$$$$
