Title Card Required
 OpenBabel05152619573D

 25 24  0  0  0  0  0  0  0  0999 V2000
    0.1727    0.5980    0.1253 C   0  0  0  0  0  0  0  0  0  0  0  0
    0.1315    1.0837    1.3885 F   0  0  0  0  0  0  0  0  0  0  0  0
    0.0821    1.6564   -0.7158 F   0  0  0  0  0  0  0  0  0  0  0  0
    1.4617   -0.1599   -0.1056 C   0  0  0  0  0  0  0  0  0  0  0  0
    2.6672    0.7241    0.1678 C   0  0  0  0  0  0  0  0  0  0  0  0
   -1.0823   -0.2937   -0.0840 C   0  0  0  0  0  0  0  0  0  0  0  0
   -2.4425    0.4661   -0.1127 C   0  0  0  0  0  0  0  0  0  0  0  0
   -1.1062   -1.2069    0.9048 F   0  0  0  0  0  0  0  0  0  0  0  0
   -0.9528   -0.9447   -1.2533 F   0  0  0  0  0  0  0  0  0  0  0  0
   -2.4803    1.3790    0.8666 F   0  0  0  0  0  0  0  0  0  0  0  0
   -2.5596    1.0870   -1.2924 F   0  0  0  0  0  0  0  0  0  0  0  0
   -3.6893   -0.4508    0.0620 C   0  0  0  0  0  0  0  0  0  0  0  0
   -3.6426   -1.4742   -0.7830 F   0  0  0  0  0  0  0  0  0  0  0  0
   -3.7644   -0.9151    1.3013 F   0  0  0  0  0  0  0  0  0  0  0  0
    4.2063   -0.1304   -0.1302 S   0  0  0  0  0  0  0  0  0  0  0  0
    5.2620    0.7819    0.2097 O   0  0  0  0  0  0  0  0  0  0  0  0
    4.1243   -0.7607   -1.4204 O   0  0  0  0  0  0  0  0  0  0  0  0
    4.1730   -1.3458    1.0038 N   0  0  0  0  0  0  0  0  0  0  0  0
    4.2959   -2.2400    0.5494 H   0  0  0  0  0  0  0  0  0  0  0  0
    4.8760   -1.1856    1.7118 H   0  0  0  0  0  0  0  0  0  0  0  0
    2.7026    1.5852   -0.4980 H   0  0  0  0  0  0  0  0  0  0  0  0
    1.4782   -0.5125   -1.1344 H   0  0  0  0  0  0  0  0  0  0  0  0
    1.4688   -1.0261    0.5553 H   0  0  0  0  0  0  0  0  0  0  0  0
    2.7058    1.0739    1.1967 H   0  0  0  0  0  0  0  0  0  0  0  0
   -4.7805    0.2613   -0.1897 F   0  0  0  0  0  0  0  0  0  0  0  0
  1  2  1  0  0  0  0
  1  3  1  0  0  0  0
  1  4  1  0  0  0  0
  1  6  1  0  0  0  0
  4  5  1  0  0  0  0
  4 22  1  0  0  0  0
  4 23  1  0  0  0  0
  5 15  1  0  0  0  0
  5 21  1  0  0  0  0
  5 24  1  0  0  0  0
  6  7  1  0  0  0  0
  6  8  1  0  0  0  0
  6  9  1  0  0  0  0
  7 10  1  0  0  0  0
  7 11  1  0  0  0  0
  7 12  1  0  0  0  0
 12 13  1  0  0  0  0
 12 14  1  0  0  0  0
 12 25  1  0  0  0  0
 15 16  2  0  0  0  0
 15 17  2  0  0  0  0
 15 18  1  0  0  0  0
 18 19  1  0  0  0  0
 18 20  1  0  0  0  0
M  END
$$$$
