Title Card Required
 OpenBabel05152619573D

 24 23  0  0  0  0  0  0  0  0999 V2000
    0.1775    0.5897    0.1062 C   0  0  0  0  0  0  0  0  0  0  0  0
    0.1426    1.1083    1.3567 F   0  0  0  0  0  0  0  0  0  0  0  0
    0.0934    1.6266   -0.7615 F   0  0  0  0  0  0  0  0  0  0  0  0
    1.4633   -0.1800   -0.1062 C   0  0  0  0  0  0  0  0  0  0  0  0
    2.6691    0.7155    0.1373 C   0  0  0  0  0  0  0  0  0  0  0  0
   -1.0816   -0.3013   -0.0785 C   0  0  0  0  0  0  0  0  0  0  0  0
   -2.4378    0.4651   -0.1246 C   0  0  0  0  0  0  0  0  0  0  0  0
   -1.1072   -1.1879    0.9334 F   0  0  0  0  0  0  0  0  0  0  0  0
   -0.9558   -0.9814   -1.2310 F   0  0  0  0  0  0  0  0  0  0  0  0
   -2.4681    1.4023    0.8320 F   0  0  0  0  0  0  0  0  0  0  0  0
   -2.5522    1.0574   -1.3190 F   0  0  0  0  0  0  0  0  0  0  0  0
   -3.6893   -0.4403    0.0745 C   0  0  0  0  0  0  0  0  0  0  0  0
   -3.6493   -1.4838   -0.7454 F   0  0  0  0  0  0  0  0  0  0  0  0
   -3.7641   -0.8734    1.3249 F   0  0  0  0  0  0  0  0  0  0  0  0
    4.2026   -0.1514   -0.1339 S   0  0  0  0  0  0  0  0  0  0  0  0
    5.2887    0.7194    0.2060 O   0  0  0  0  0  1  0  0  0  0  0  0
    4.1296   -0.8266   -1.3881 O   0  0  0  0  0  1  0  0  0  0  0  0
    4.1290   -1.2865    1.0032 O   0  0  0  0  0  0  0  0  0  0  0  0
    4.7490   -1.0454    1.6996 H   0  0  0  0  0  0  0  0  0  0  0  0
    2.7022    1.5518   -0.5596 H   0  0  0  0  0  0  0  0  0  0  0  0
    1.4777   -0.5632   -1.1239 H   0  0  0  0  0  0  0  0  0  0  0  0
    1.4696   -1.0283    0.5769 H   0  0  0  0  0  0  0  0  0  0  0  0
    2.7089    1.1032    1.1524 H   0  0  0  0  0  0  0  0  0  0  0  0
   -4.7766    0.2719   -0.1926 F   0  0  0  0  0  0  0  0  0  0  0  0
  1  2  1  0  0  0  0
  1  3  1  0  0  0  0
  1  4  1  0  0  0  0
  1  6  1  0  0  0  0
  4  5  1  0  0  0  0
  4 21  1  0  0  0  0
  4 22  1  0  0  0  0
  5 15  1  0  0  0  0
  5 20  1  0  0  0  0
  5 23  1  0  0  0  0
  6  7  1  0  0  0  0
  6  8  1  0  0  0  0
  6  9  1  0  0  0  0
  7 10  1  0  0  0  0
  7 11  1  0  0  0  0
  7 12  1  0  0  0  0
 12 13  1  0  0  0  0
 12 14  1  0  0  0  0
 12 24  1  0  0  0  0
 15 16  1  0  0  0  0
 15 17  1  0  0  0  0
 15 18  1  0  0  0  0
 18 19  1  0  0  0  0
M  END
$$$$
