Title Card Required
 OpenBabel05152619573D

 23 22  0  0  0  0  0  0  0  0999 V2000
    0.7496    0.5070    0.1692 C   0  0  0  0  0  0  0  0  0  0  0  0
    0.7228    0.8544    1.4776 F   0  0  0  0  0  0  0  0  0  0  0  0
    0.6867    1.6531   -0.5525 F   0  0  0  0  0  0  0  0  0  0  0  0
    2.0156   -0.2580   -0.1468 C   0  0  0  0  0  0  0  0  0  0  0  0
    3.2576    0.5529    0.2195 C   0  0  0  0  0  0  0  0  0  0  0  0
    4.5469   -0.1700   -0.0749 C   0  0  0  0  0  0  0  0  0  0  0  0
    5.5190    0.3294   -0.5675 O   0  0  0  0  0  0  0  0  0  0  0  0
    4.5095   -1.4611    0.3064 O   0  0  0  0  0  0  0  0  0  0  0  0
    5.3739   -1.8389    0.1091 H   0  0  0  0  0  0  0  0  0  0  0  0
   -0.5336   -0.3167   -0.1290 C   0  0  0  0  0  0  0  0  0  0  0  0
   -1.8693    0.4842   -0.0719 C   0  0  0  0  0  0  0  0  0  0  0  0
   -0.5884   -1.3301    0.7547 F   0  0  0  0  0  0  0  0  0  0  0  0
   -0.4266   -0.8421   -1.3632 F   0  0  0  0  0  0  0  0  0  0  0  0
   -1.8799    1.2876    0.9995 F   0  0  0  0  0  0  0  0  0  0  0  0
   -1.9671    1.2315   -1.1781 F   0  0  0  0  0  0  0  0  0  0  0  0
   -3.1446   -0.4066    0.0068 C   0  0  0  0  0  0  0  0  0  0  0  0
   -3.1300   -1.3345   -0.9432 F   0  0  0  0  0  0  0  0  0  0  0  0
   -3.2357   -0.9985    1.1892 F   0  0  0  0  0  0  0  0  0  0  0  0
    3.2895    1.4981   -0.3153 H   0  0  0  0  0  0  0  0  0  0  0  0
    3.2536    0.7749    1.2884 H   0  0  0  0  0  0  0  0  0  0  0  0
    1.9923   -1.1962    0.4046 H   0  0  0  0  0  0  0  0  0  0  0  0
    2.0102   -0.4952   -1.2092 H   0  0  0  0  0  0  0  0  0  0  0  0
   -4.2129    0.3623   -0.1646 F   0  0  0  0  0  0  0  0  0  0  0  0
  1  2  1  0  0  0  0
  1  3  1  0  0  0  0
  1  4  1  0  0  0  0
  1 10  1  0  0  0  0
  4  5  1  0  0  0  0
  4 21  1  0  0  0  0
  4 22  1  0  0  0  0
  5  6  1  0  0  0  0
  5 19  1  0  0  0  0
  5 20  1  0  0  0  0
  6  7  2  0  0  0  0
  6  8  1  0  0  0  0
  8  9  1  0  0  0  0
 10 11  1  0  0  0  0
 10 12  1  0  0  0  0
 10 13  1  0  0  0  0
 11 14  1  0  0  0  0
 11 15  1  0  0  0  0
 11 16  1  0  0  0  0
 16 17  1  0  0  0  0
 16 18  1  0  0  0  0
 16 23  1  0  0  0  0
M  END
$$$$
