/home/yang/projects/t99_calc/v1/qchem_data/combined/log_fchk/4_heptyl.log
 OpenBabel05152619573D
Gaussian applications/g16/g16/g16 # opt freq uwb97xd/6-311+g(2d,2p) geom=connect
 22 21  0  0  0  0  0  0  0  0999 V2000
    1.4113    0.9721    0.2648 C   0  0  0  0  0  0  0  0  0  0  0  0
    2.1990    1.9431   -0.2300 F   0  0  0  0  0  0  0  0  0  0  0  0
    1.4970    0.9843    1.6056 F   0  0  0  0  0  0  0  0  0  0  0  0
   -0.0020    1.2570   -0.1639 C   0  0  0  0  0  3  0  0  0  0  0  0
   -0.1372    1.9303   -1.2832 F   0  0  0  0  0  0  0  0  0  0  0  0
   -1.2770    0.7899    0.4680 C   0  0  0  0  0  0  0  0  0  0  0  0
   -1.9943    1.8574    0.8840 F   0  0  0  0  0  0  0  0  0  0  0  0
   -1.0006    0.0239    1.5337 F   0  0  0  0  0  0  0  0  0  0  0  0
   -2.1728   -0.0242   -0.5190 C   0  0  0  0  0  0  0  0  0  0  0  0
   -1.3971   -0.9144   -1.1586 F   0  0  0  0  0  0  0  0  0  0  0  0
   -2.6974    0.8172   -1.4172 F   0  0  0  0  0  0  0  0  0  0  0  0
   -3.3401   -0.8090    0.1444 C   0  0  0  0  0  0  0  0  0  0  0  0
   -4.0616   -0.0082    0.9179 F   0  0  0  0  0  0  0  0  0  0  0  0
   -2.8764   -1.8148    0.8715 F   0  0  0  0  0  0  0  0  0  0  0  0
    1.9438   -0.3959   -0.2547 C   0  0  0  0  0  0  0  0  0  0  0  0
    1.7800   -0.4207   -1.5865 F   0  0  0  0  0  0  0  0  0  0  0  0
    1.2017   -1.3677    0.2937 F   0  0  0  0  0  0  0  0  0  0  0  0
    3.4349   -0.7114    0.0467 C   0  0  0  0  0  0  0  0  0  0  0  0
    4.2324    0.1596   -0.5548 F   0  0  0  0  0  0  0  0  0  0  0  0
    3.7114   -1.9275   -0.4088 F   0  0  0  0  0  0  0  0  0  0  0  0
    3.6649   -0.6819    1.3523 F   0  0  0  0  0  0  0  0  0  0  0  0
   -4.1204   -1.2995   -0.8106 F   0  0  0  0  0  0  0  0  0  0  0  0
  1  3  1  0  0  0  0
  2  1  1  0  0  0  0
  4  1  1  0  0  0  0
  4  6  1  0  0  0  0
  5  4  1  0  0  0  0
  6  7  1  0  0  0  0
  6  8  1  0  0  0  0
  9 12  1  0  0  0  0
  9  6  1  0  0  0  0
 10  9  1  0  0  0  0
 11  9  1  0  0  0  0
 12 14  1  0  0  0  0
 12 13  1  0  0  0  0
 15 18  1  0  0  0  0
 15  1  1  0  0  0  0
 15 17  1  0  0  0  0
 16 15  1  0  0  0  0
 18 21  1  0  0  0  0
 19 18  1  0  0  0  0
 20 18  1  0  0  0  0
 22 12  1  0  0  0  0
M  END
>  <program>
Gaussian 16, Revision A.03

>  <basis>
6-311+G(2d,2p) (5D, 7F)

>  <File Format>
g03

$$$$
