/home/yang/projects/t99_calc/v1/qchem_data/combined/log_fchk/4_octyl.log
 OpenBabel05152619573D
Gaussian 16 # opt freq uwb97xd/6-311+g(2d,2p) geom=connectivity scf=xqc
 25 24  0  0  1  0  0  0  0  0999 V2000
    2.1178    0.9705    0.0739 C   0  0  0  0  0  0  0  0  0  0  0  0
    2.9759    1.7257   -0.6344 F   0  0  0  0  0  0  0  0  0  0  0  0
    2.2996    1.2169    1.3821 F   0  0  0  0  0  0  0  0  0  0  0  0
    0.7206    1.3514   -0.3319 C   0  0  1  0  0  3  0  0  0  0  0  0
    0.5837    1.8155   -1.5530 F   0  0  0  0  0  0  0  0  0  0  0  0
   -0.5540    1.1668    0.4332 C   0  0  0  0  0  0  0  0  0  0  0  0
   -1.1215    2.3716    0.6588 F   0  0  0  0  0  0  0  0  0  0  0  0
   -0.2944    0.5886    1.6148 F   0  0  0  0  0  0  0  0  0  0  0  0
   -1.5925    0.2889   -0.3422 C   0  0  0  0  0  0  0  0  0  0  0  0
   -0.9394   -0.7569   -0.8722 F   0  0  0  0  0  0  0  0  0  0  0  0
   -2.1063    1.0224   -1.3388 F   0  0  0  0  0  0  0  0  0  0  0  0
   -2.7496   -0.2584    0.5466 C   0  0  0  0  0  0  0  0  0  0  0  0
   -3.1944    0.7134    1.3543 F   0  0  0  0  0  0  0  0  0  0  0  0
   -2.2797   -1.2663    1.2894 F   0  0  0  0  0  0  0  0  0  0  0  0
    2.4497   -0.5262   -0.2003 C   0  0  0  0  0  0  0  0  0  0  0  0
    2.1885   -0.7744   -1.4931 F   0  0  0  0  0  0  0  0  0  0  0  0
    1.6422   -1.2785    0.5598 F   0  0  0  0  0  0  0  0  0  0  0  0
    3.9124   -0.9673    0.0817 C   0  0  0  0  0  0  0  0  0  0  0  0
    4.7587   -0.3315   -0.7156 F   0  0  0  0  0  0  0  0  0  0  0  0
    4.0127   -2.2719   -0.1439 F   0  0  0  0  0  0  0  0  0  0  0  0
    4.2392   -0.7258    1.3440 F   0  0  0  0  0  0  0  0  0  0  0  0
   -3.9696   -0.7940   -0.2598 C   0  0  0  0  0  0  0  0  0  0  0  0
   -4.7878   -1.4218    0.5744 F   0  0  0  0  0  0  0  0  0  0  0  0
   -4.6299    0.2007   -0.8335 F   0  0  0  0  0  0  0  0  0  0  0  0
   -3.5703   -1.6488   -1.1940 F   0  0  0  0  0  0  0  0  0  0  0  0
  1  3  1  0  0  0  0
  2  1  1  0  0  0  0
  4  5  1  6  0  0  0
  4  1  1  0  0  0  0
  4  6  1  0  0  0  0
  6  7  1  0  0  0  0
  6  8  1  0  0  0  0
  9  6  1  0  0  0  0
  9 12  1  0  0  0  0
 10  9  1  0  0  0  0
 11  9  1  0  0  0  0
 12 14  1  0  0  0  0
 12 13  1  0  0  0  0
 15  1  1  0  0  0  0
 15 18  1  0  0  0  0
 15 17  1  0  0  0  0
 16 15  1  0  0  0  0
 18 21  1  0  0  0  0
 19 18  1  0  0  0  0
 20 18  1  0  0  0  0
 22 12  1  0  0  0  0
 22 23  1  0  0  0  0
 24 22  1  0  0  0  0
 25 22  1  0  0  0  0
M  END
>  <program>
Gaussian 16, Revision A.03

>  <basis>
6-311+G(2d,2p) (5D, 7F)

>  <File Format>
g03

$$$$
