Title Card Required
 OpenBabel05152619573D

 27 26  0  0  0  0  0  0  0  0999 V2000
   -0.8829    0.5481   -0.1744 C   0  0  0  0  0  0  0  0  0  0  0  0
   -0.8667    0.9923   -1.4533 F   0  0  0  0  0  0  0  0  0  0  0  0
   -0.7614    1.6316    0.6300 F   0  0  0  0  0  0  0  0  0  0  0  0
   -2.1773   -0.1834    0.1090 C   0  0  0  0  0  0  0  0  0  0  0  0
   -3.3722    0.7182   -0.1645 C   0  0  0  0  0  0  0  0  0  0  0  0
    0.3638   -0.3553    0.0374 C   0  0  0  0  0  0  0  0  0  0  0  0
    1.7336    0.3939    0.0227 C   0  0  0  0  0  0  0  0  0  0  0  0
    0.3590   -1.2911   -0.9288 F   0  0  0  0  0  0  0  0  0  0  0  0
    0.2427   -0.9711    1.2255 F   0  0  0  0  0  0  0  0  0  0  0  0
    1.7361    1.3090   -0.9540 F   0  0  0  0  0  0  0  0  0  0  0  0
    1.8835    1.0179    1.1992 F   0  0  0  0  0  0  0  0  0  0  0  0
    2.9505   -0.5567   -0.2047 C   0  0  0  0  0  0  0  0  0  0  0  0
    4.3252    0.0694    0.1748 C   0  0  0  0  0  0  0  0  0  0  0  0
    4.4687    1.2607   -0.3928 F   0  0  0  0  0  0  0  0  0  0  0  0
    4.4404    0.1962    1.4883 F   0  0  0  0  0  0  0  0  0  0  0  0
    2.7991   -1.6685    0.5286 F   0  0  0  0  0  0  0  0  0  0  0  0
    2.9997   -0.8894   -1.4995 F   0  0  0  0  0  0  0  0  0  0  0  0
   -4.9143   -0.1004    0.1938 S   0  0  0  0  0  0  0  0  0  0  0  0
   -5.9921    0.7679   -0.1775 O   0  0  0  0  0  1  0  0  0  0  0  0
   -4.8250   -0.6961    1.4866 O   0  0  0  0  0  1  0  0  0  0  0  0
   -4.8865   -1.3063   -0.8700 O   0  0  0  0  0  0  0  0  0  0  0  0
   -5.5174   -1.0978   -1.5672 H   0  0  0  0  0  0  0  0  0  0  0  0
   -3.3745    1.5968    0.4791 H   0  0  0  0  0  0  0  0  0  0  0  0
   -2.1777   -0.5047    1.1479 H   0  0  0  0  0  0  0  0  0  0  0  0
   -2.2123   -1.0708   -0.5216 H   0  0  0  0  0  0  0  0  0  0  0  0
   -3.4279    1.0425   -1.2008 H   0  0  0  0  0  0  0  0  0  0  0  0
    5.2903   -0.7310   -0.2600 F   0  0  0  0  0  0  0  0  0  0  0  0
  1  2  1  0  0  0  0
  1  3  1  0  0  0  0
  1  4  1  0  0  0  0
  1  6  1  0  0  0  0
  4  5  1  0  0  0  0
  4 24  1  0  0  0  0
  4 25  1  0  0  0  0
  5 18  1  0  0  0  0
  5 23  1  0  0  0  0
  5 26  1  0  0  0  0
  6  7  1  0  0  0  0
  6  8  1  0  0  0  0
  6  9  1  0  0  0  0
  7 10  1  0  0  0  0
  7 11  1  0  0  0  0
  7 12  1  0  0  0  0
 12 13  1  0  0  0  0
 12 16  1  0  0  0  0
 12 17  1  0  0  0  0
 13 14  1  0  0  0  0
 13 15  1  0  0  0  0
 13 27  1  0  0  0  0
 18 19  1  0  0  0  0
 18 20  1  0  0  0  0
 18 21  1  0  0  0  0
 21 22  1  0  0  0  0
M  END
$$$$
