Title Card Required
 OpenBabel05152619573D

 28 27  0  0  0  0  0  0  0  0999 V2000
    0.8792   -0.5582   -0.1868 C   0  0  0  0  0  0  0  0  0  0  0  0
    0.8576   -0.9798   -1.4731 F   0  0  0  0  0  0  0  0  0  0  0  0
    0.7517   -1.6549    0.5990 F   0  0  0  0  0  0  0  0  0  0  0  0
    2.1760    0.1633    0.1082 C   0  0  0  0  0  0  0  0  0  0  0  0
    3.3717   -0.7270   -0.1870 C   0  0  0  0  0  0  0  0  0  0  0  0
   -0.3641    0.3460    0.0419 C   0  0  0  0  0  0  0  0  0  0  0  0
   -1.7374   -0.3964    0.0151 C   0  0  0  0  0  0  0  0  0  0  0  0
   -0.3574    1.2996   -0.9074 F   0  0  0  0  0  0  0  0  0  0  0  0
   -0.2410    0.9412    1.2406 F   0  0  0  0  0  0  0  0  0  0  0  0
   -1.7459   -1.2947   -0.9769 F   0  0  0  0  0  0  0  0  0  0  0  0
   -1.8904   -1.0394    1.1812 F   0  0  0  0  0  0  0  0  0  0  0  0
   -2.9503    0.5634   -0.1952 C   0  0  0  0  0  0  0  0  0  0  0  0
   -4.3277   -0.0625    0.1746 C   0  0  0  0  0  0  0  0  0  0  0  0
   -4.4780   -1.2430   -0.4133 F   0  0  0  0  0  0  0  0  0  0  0  0
   -4.4430   -0.2112    1.4858 F   0  0  0  0  0  0  0  0  0  0  0  0
   -2.7941    1.6623    0.5568 F   0  0  0  0  0  0  0  0  0  0  0  0
   -2.9994    0.9186   -1.4840 F   0  0  0  0  0  0  0  0  0  0  0  0
    4.9185    0.0830    0.1864 S   0  0  0  0  0  0  0  0  0  0  0  0
    5.9657   -0.8284   -0.1809 O   0  0  0  0  0  0  0  0  0  0  0  0
    4.8202    0.6451    1.5066 O   0  0  0  0  0  0  0  0  0  0  0  0
    4.9288    1.3573   -0.8813 N   0  0  0  0  0  0  0  0  0  0  0  0
    5.0567    2.2239   -0.3774 H   0  0  0  0  0  0  0  0  0  0  0  0
    5.6435    1.2227   -1.5829 H   0  0  0  0  0  0  0  0  0  0  0  0
    3.3785   -1.6220    0.4332 H   0  0  0  0  0  0  0  0  0  0  0  0
    2.1778    0.4623    1.1540 H   0  0  0  0  0  0  0  0  0  0  0  0
    2.2112    1.0620   -0.5068 H   0  0  0  0  0  0  0  0  0  0  0  0
    3.4259   -1.0232   -1.2320 H   0  0  0  0  0  0  0  0  0  0  0  0
   -5.2893    0.7503   -0.2456 F   0  0  0  0  0  0  0  0  0  0  0  0
  1  2  1  0  0  0  0
  1  3  1  0  0  0  0
  1  4  1  0  0  0  0
  1  6  1  0  0  0  0
  4  5  1  0  0  0  0
  4 25  1  0  0  0  0
  4 26  1  0  0  0  0
  5 18  1  0  0  0  0
  5 24  1  0  0  0  0
  5 27  1  0  0  0  0
  6  7  1  0  0  0  0
  6  8  1  0  0  0  0
  6  9  1  0  0  0  0
  7 10  1  0  0  0  0
  7 11  1  0  0  0  0
  7 12  1  0  0  0  0
 12 13  1  0  0  0  0
 12 16  1  0  0  0  0
 12 17  1  0  0  0  0
 13 14  1  0  0  0  0
 13 15  1  0  0  0  0
 13 28  1  0  0  0  0
 18 19  2  0  0  0  0
 18 20  2  0  0  0  0
 18 21  1  0  0  0  0
 21 22  1  0  0  0  0
 21 23  1  0  0  0  0
M  END
$$$$
