/home/yang/projects/t99_calc/v1/qchem_data/combined/log_fchk/52ftoh.log
 OpenBabel05152619573D
Gaussian 16 # opt freq wb97xd/6-311+g(2d) geom=connectivity
 24 23  0  0  0  0  0  0  0  0999 V2000
   -0.6998    0.4770   -0.0768 C   0  0  0  0  0  0  0  0  0  0  0  0
   -0.7512    1.0898   -1.2724 F   0  0  0  0  0  0  0  0  0  0  0  0
   -0.6573    1.4209    0.8811 F   0  0  0  0  0  0  0  0  0  0  0  0
   -2.0079   -0.3409    0.1161 C   0  0  0  0  0  0  0  0  0  0  0  0
   -1.9256   -1.4446   -0.6706 F   0  0  0  0  0  0  0  0  0  0  0  0
   -2.0394   -0.7689    1.4015 F   0  0  0  0  0  0  0  0  0  0  0  0
   -3.2458    0.4590   -0.2083 C   0  0  0  0  0  0  0  0  0  0  0  0
    0.6183   -0.3582   -0.0285 C   0  0  0  0  0  0  0  0  0  0  0  0
    1.8898    0.5142    0.2143 C   0  0  0  0  0  0  0  0  0  0  0  0
    0.7537   -1.0018   -1.1972 F   0  0  0  0  0  0  0  0  0  0  0  0
    0.5473   -1.2630    0.9551 F   0  0  0  0  0  0  0  0  0  0  0  0
    1.8234    1.6306   -0.5251 F   0  0  0  0  0  0  0  0  0  0  0  0
    1.9425    0.8493    1.5084 F   0  0  0  0  0  0  0  0  0  0  0  0
    3.2274   -0.1997   -0.1415 C   0  0  0  0  0  0  0  0  0  0  0  0
    3.2865   -1.3964    0.4302 F   0  0  0  0  0  0  0  0  0  0  0  0
    3.3571   -0.3375   -1.4528 F   0  0  0  0  0  0  0  0  0  0  0  0
   -4.5252   -0.3115    0.0669 C   0  0  0  0  0  0  0  0  0  0  0  0
   -5.5872    0.5389   -0.3170 O   0  0  0  0  0  0  0  0  0  0  0  0
   -6.4171    0.0875   -0.1492 H   0  0  0  0  0  0  0  0  0  0  0  0
   -4.5915   -0.5696    1.1282 H   0  0  0  0  0  0  0  0  0  0  0  0
   -4.5371   -1.2414   -0.5109 H   0  0  0  0  0  0  0  0  0  0  0  0
   -3.2367    1.3761    0.3829 H   0  0  0  0  0  0  0  0  0  0  0  0
   -3.2137    0.7451   -1.2593 H   0  0  0  0  0  0  0  0  0  0  0  0
    4.2356    0.5384    0.3075 F   0  0  0  0  0  0  0  0  0  0  0  0
  1  8  1  0  0  0  0
  1  4  1  0  0  0  0
  1  3  1  0  0  0  0
  2  1  1  0  0  0  0
  4  6  1  0  0  0  0
  5  4  1  0  0  0  0
  7 17  1  0  0  0  0
  7  4  1  0  0  0  0
  7 22  1  0  0  0  0
  8  9  1  0  0  0  0
  8 11  1  0  0  0  0
  9 13  1  0  0  0  0
 10  8  1  0  0  0  0
 12  9  1  0  0  0  0
 14  9  1  0  0  0  0
 14 24  1  0  0  0  0
 14 15  1  0  0  0  0
 16 14  1  0  0  0  0
 17 20  1  0  0  0  0
 18 19  1  0  0  0  0
 18 17  1  0  0  0  0
 21 17  1  0  0  0  0
 23  7  1  0  0  0  0
M  END
>  <program>
Gaussian 16, Revision C.02

>  <basis>
6-311+G(2d) (5D, 7F)

>  <File Format>
g03

$$$$
