/home/yang/projects/t99_calc/v1/qchem_data/combined/log_fchk/52rh.log
 OpenBabel05152619573D
Gaussian 16 # opt freq wb97xd/6-311+g(2d,2p) geom=connectivity
 23 22  0  0  0  0  0  0  0  0999 V2000
    2.9105   -0.2755   -0.0809 C   0  0  0  0  0  0  0  0  0  0  0  0
    1.5903    0.5057    0.1882 C   0  0  0  0  0  0  0  0  0  0  0  0
    0.2954   -0.3414   -0.0164 C   0  0  0  0  0  0  0  0  0  0  0  0
   -0.9942    0.5283   -0.1514 C   0  0  0  0  0  0  0  0  0  0  0  0
   -2.3331   -0.2281    0.0740 C   0  0  0  0  0  0  0  0  0  0  0  0
   -3.5428    0.5884   -0.3226 C   0  0  0  0  0  0  0  0  0  0  0  0
   -4.8486   -0.1440   -0.0332 C   0  0  0  0  0  0  0  0  0  0  0  0
    3.0622   -0.5187   -1.3745 F   0  0  0  0  0  0  0  0  0  0  0  0
    1.5774    1.5634   -0.6360 F   0  0  0  0  0  0  0  0  0  0  0  0
    0.4309   -1.0721   -1.1329 F   0  0  0  0  0  0  0  0  0  0  0  0
   -1.0026    1.0536   -1.3903 F   0  0  0  0  0  0  0  0  0  0  0  0
   -2.2780   -1.3834   -0.6366 F   0  0  0  0  0  0  0  0  0  0  0  0
   -2.3975   -0.5659    1.3839 F   0  0  0  0  0  0  0  0  0  0  0  0
   -0.9359    1.5403    0.7345 F   0  0  0  0  0  0  0  0  0  0  0  0
    0.1785   -1.1697    1.0281 F   0  0  0  0  0  0  0  0  0  0  0  0
    1.6278    0.9382    1.4537 F   0  0  0  0  0  0  0  0  0  0  0  0
    2.9191   -1.4253    0.5825 F   0  0  0  0  0  0  0  0  0  0  0  0
   -4.9016   -1.0842   -0.5793 H   0  0  0  0  0  0  0  0  0  0  0  0
   -5.6891    0.4746   -0.3424 H   0  0  0  0  0  0  0  0  0  0  0  0
   -4.9561   -0.3563    1.0287 H   0  0  0  0  0  0  0  0  0  0  0  0
   -3.4978    1.5308    0.2232 H   0  0  0  0  0  0  0  0  0  0  0  0
   -3.4548    0.8178   -1.3831 H   0  0  0  0  0  0  0  0  0  0  0  0
    3.9333    0.4636    0.3325 F   0  0  0  0  0  0  0  0  0  0  0  0
  1  2  1  0  0  0  0
  1 23  1  0  0  0  0
  1 17  1  0  0  0  0
  2 16  1  0  0  0  0
  3  2  1  0  0  0  0
  3 15  1  0  0  0  0
  4  3  1  0  0  0  0
  4  5  1  0  0  0  0
  4 14  1  0  0  0  0
  5 13  1  0  0  0  0
  6  7  1  0  0  0  0
  6  5  1  0  0  0  0
  6 21  1  0  0  0  0
  7 20  1  0  0  0  0
  8  1  1  0  0  0  0
  9  2  1  0  0  0  0
 10  3  1  0  0  0  0
 11  4  1  0  0  0  0
 12  5  1  0  0  0  0
 18  7  1  0  0  0  0
 19  7  1  0  0  0  0
 22  6  1  0  0  0  0
M  END
>  <program>
Gaussian 16, Revision A.03

>  <basis>
6-311+G(2d,2p) (5D, 7F)

>  <File Format>
g03

$$$$
