Title Card Required
 OpenBabel05152619573D

 26 25  0  0  0  0  0  0  0  0999 V2000
   -1.4487   -0.4681    0.2144 C   0  0  0  0  0  0  0  0  0  0  0  0
   -1.4425   -0.7445    1.5397 F   0  0  0  0  0  0  0  0  0  0  0  0
   -1.3360   -1.6484   -0.4438 F   0  0  0  0  0  0  0  0  0  0  0  0
   -2.7286    0.2409   -0.1692 C   0  0  0  0  0  0  0  0  0  0  0  0
   -3.9552   -0.5852    0.2149 C   0  0  0  0  0  0  0  0  0  0  0  0
   -5.2569    0.0828   -0.1472 C   0  0  0  0  0  0  0  0  0  0  0  0
   -6.2017   -0.4698   -0.6358 O   0  0  0  0  0  0  0  0  0  0  0  0
   -5.2655    1.3924    0.1666 O   0  0  0  0  0  0  0  0  0  0  0  0
   -6.1347    1.7341   -0.0709 H   0  0  0  0  0  0  0  0  0  0  0  0
   -0.1835    0.3778   -0.1015 C   0  0  0  0  0  0  0  0  0  0  0  0
    1.1736   -0.3848    0.0186 C   0  0  0  0  0  0  0  0  0  0  0  0
   -0.1733    1.4317    0.7346 F   0  0  0  0  0  0  0  0  0  0  0  0
   -0.2847    0.8385   -1.3612 F   0  0  0  0  0  0  0  0  0  0  0  0
    1.1594   -1.1665    1.1046 F   0  0  0  0  0  0  0  0  0  0  0  0
    1.3203   -1.1574   -1.0673 F   0  0  0  0  0  0  0  0  0  0  0  0
    2.4055    0.5677    0.1289 C   0  0  0  0  0  0  0  0  0  0  0  0
    3.7711   -0.1225   -0.1616 C   0  0  0  0  0  0  0  0  0  0  0  0
    3.8959   -1.2335    0.5540 F   0  0  0  0  0  0  0  0  0  0  0  0
    3.8882   -0.4177   -1.4477 F   0  0  0  0  0  0  0  0  0  0  0  0
    4.7478    0.7126    0.1713 F   0  0  0  0  0  0  0  0  0  0  0  0
    2.2757    1.5799   -0.7409 F   0  0  0  0  0  0  0  0  0  0  0  0
    2.4578    1.0622    1.3707 F   0  0  0  0  0  0  0  0  0  0  0  0
   -3.9481   -1.5586   -0.2674 H   0  0  0  0  0  0  0  0  0  0  0  0
   -3.9696   -0.7480    1.2943 H   0  0  0  0  0  0  0  0  0  0  0  0
   -2.7443    1.2079    0.3303 H   0  0  0  0  0  0  0  0  0  0  0  0
   -2.7062    0.4203   -1.2426 H   0  0  0  0  0  0  0  0  0  0  0  0
  1  2  1  0  0  0  0
  1  3  1  0  0  0  0
  1  4  1  0  0  0  0
  1 10  1  0  0  0  0
  4  5  1  0  0  0  0
  4 25  1  0  0  0  0
  4 26  1  0  0  0  0
  5  6  1  0  0  0  0
  5 23  1  0  0  0  0
  5 24  1  0  0  0  0
  6  7  2  0  0  0  0
  6  8  1  0  0  0  0
  8  9  1  0  0  0  0
 10 11  1  0  0  0  0
 10 12  1  0  0  0  0
 10 13  1  0  0  0  0
 11 14  1  0  0  0  0
 11 15  1  0  0  0  0
 11 16  1  0  0  0  0
 16 17  1  0  0  0  0
 16 21  1  0  0  0  0
 16 22  1  0  0  0  0
 17 18  1  0  0  0  0
 17 19  1  0  0  0  0
 17 20  1  0  0  0  0
M  END
$$$$
