Title Card Required
 OpenBabel05152619573D

 54 53  0  0  0  0  0  0  0  0999 V2000
    6.8210   -0.6935   -0.3715 C   0  0  0  0  0  0  0  0  0  0  0  0
    5.4383   -0.8525    0.3278 C   0  0  0  0  0  0  0  0  0  0  0  0
    4.3460    0.1319   -0.1957 C   0  0  0  0  0  0  0  0  0  0  0  0
    4.4296    0.1972   -1.5321 F   0  0  0  0  0  0  0  0  0  0  0  0
    5.0382   -2.1178    0.1388 F   0  0  0  0  0  0  0  0  0  0  0  0
    6.7748   -1.1328   -1.6207 F   0  0  0  0  0  0  0  0  0  0  0  0
    7.7192   -1.4096    0.2945 F   0  0  0  0  0  0  0  0  0  0  0  0
    7.2032    0.5779   -0.3708 F   0  0  0  0  0  0  0  0  0  0  0  0
    5.6211   -0.6412    1.6355 F   0  0  0  0  0  0  0  0  0  0  0  0
    4.6049    1.3434    0.3137 F   0  0  0  0  0  0  0  0  0  0  0  0
    2.8940   -0.2999    0.1919 C   0  0  0  0  0  0  0  0  0  0  0  0
    1.8597    0.8651    0.0821 C   0  0  0  0  0  0  0  0  0  0  0  0
    0.3705    0.4218    0.0284 C   0  0  0  0  0  0  0  0  0  0  0  0
   -0.5809    1.5862    0.1862 C   0  0  0  0  0  0  0  0  0  0  0  0
   -0.3329    2.3330   -0.5681 H   0  0  0  0  0  0  0  0  0  0  0  0
   -0.4276    2.0292    1.1677 H   0  0  0  0  0  0  0  0  0  0  0  0
   -2.0257    1.1336    0.0346 C   0  0  0  0  0  0  0  0  0  0  0  0
   -2.3344    0.4352    0.8116 H   0  0  0  0  0  0  0  0  0  0  0  0
   -2.1991    0.6817   -0.9401 H   0  0  0  0  0  0  0  0  0  0  0  0
    2.5342   -1.3032   -0.6174 F   0  0  0  0  0  0  0  0  0  0  0  0
    2.9024   -0.7431    1.4567 F   0  0  0  0  0  0  0  0  0  0  0  0
    2.0308    1.6650    1.1486 F   0  0  0  0  0  0  0  0  0  0  0  0
    2.1229    1.5785   -1.0291 F   0  0  0  0  0  0  0  0  0  0  0  0
    0.1714   -0.1943   -1.1639 F   0  0  0  0  0  0  0  0  0  0  0  0
    0.1776   -0.5004    0.9976 F   0  0  0  0  0  0  0  0  0  0  0  0
   -3.1170    2.5506    0.1373 S   0  0  0  0  0  0  0  0  0  0  0  0
   -4.6446    1.9452    0.0857 N   0  0  0  0  0  0  0  0  0  0  0  0
   -4.7776    1.3043    0.8725 H   0  0  0  0  0  0  0  0  0  0  0  0
   -2.9254    3.3314   -1.0607 O   0  0  0  0  0  0  0  0  0  0  0  0
   -2.9432    3.1330    1.4372 O   0  0  0  0  0  0  0  0  0  0  0  0
   -5.1848    1.4949   -1.1908 C   0  0  0  0  0  0  0  0  0  0  0  0
   -6.1936    1.9026   -1.3017 H   0  0  0  0  0  0  0  0  0  0  0  0
   -4.5885    1.9439   -1.9822 H   0  0  0  0  0  0  0  0  0  0  0  0
   -5.2119   -0.0296   -1.3593 C   0  0  0  0  0  0  0  0  0  0  0  0
   -4.2863   -0.4450   -0.9682 H   0  0  0  0  0  0  0  0  0  0  0  0
   -5.2571   -0.2684   -2.4224 H   0  0  0  0  0  0  0  0  0  0  0  0
   -6.4313   -0.6231   -0.6543 C   0  0  0  0  0  0  0  0  0  0  0  0
   -6.6316   -0.1031    0.2805 H   0  0  0  0  0  0  0  0  0  0  0  0
   -7.3045   -0.5260   -1.2979 H   0  0  0  0  0  0  0  0  0  0  0  0
   -6.3471   -2.0972   -0.2768 N   0  0  0  0  0  4  0  0  0  0  0  0
   -5.5591   -2.8832   -1.2731 C   0  0  0  0  0  0  0  0  0  0  0  0
   -5.7067   -3.9384   -1.0580 H   0  0  0  0  0  0  0  0  0  0  0  0
   -5.9238   -2.6517   -2.2707 H   0  0  0  0  0  0  0  0  0  0  0  0
   -4.5083   -2.6364   -1.1552 H   0  0  0  0  0  0  0  0  0  0  0  0
   -7.7334   -2.6362   -0.2332 C   0  0  0  0  0  0  0  0  0  0  0  0
   -8.1442   -2.6467   -1.2402 H   0  0  0  0  0  0  0  0  0  0  0  0
   -7.7052   -3.6459    0.1676 H   0  0  0  0  0  0  0  0  0  0  0  0
   -8.3379   -2.0018    0.4095 H   0  0  0  0  0  0  0  0  0  0  0  0
   -5.7435   -2.2558    1.1049 C   0  0  0  0  0  0  0  0  0  0  0  0
   -5.5447   -3.3171    1.2383 H   0  0  0  0  0  0  0  0  0  0  0  0
   -6.4940   -1.9106    1.8110 H   0  0  0  0  0  0  0  0  0  0  0  0
   -4.4452   -1.4071    1.2430 C   0  0  0  0  0  0  0  0  0  0  0  0
   -3.4439   -1.8722    0.6823 O   0  0  0  0  0  0  0  0  0  0  0  0
   -4.6053   -0.3266    1.8408 O   0  0  0  0  0  1  0  0  0  0  0  0
  1  2  1  0  0  0  0
  1  6  1  0  0  0  0
  1  7  1  0  0  0  0
  1  8  1  0  0  0  0
  2  3  1  0  0  0  0
  2  5  1  0  0  0  0
  2  9  1  0  0  0  0
  3  4  1  0  0  0  0
  3 10  1  0  0  0  0
  3 11  1  0  0  0  0
 11 12  1  0  0  0  0
 11 20  1  0  0  0  0
 11 21  1  0  0  0  0
 12 13  1  0  0  0  0
 12 22  1  0  0  0  0
 12 23  1  0  0  0  0
 13 14  1  0  0  0  0
 13 24  1  0  0  0  0
 13 25  1  0  0  0  0
 14 15  1  0  0  0  0
 14 16  1  0  0  0  0
 14 17  1  0  0  0  0
 17 18  1  0  0  0  0
 17 19  1  0  0  0  0
 17 26  1  0  0  0  0
 26 27  1  0  0  0  0
 26 29  2  0  0  0  0
 26 30  2  0  0  0  0
 27 28  1  0  0  0  0
 27 31  1  0  0  0  0
 31 32  1  0  0  0  0
 31 33  1  0  0  0  0
 31 34  1  0  0  0  0
 34 35  1  0  0  0  0
 34 36  1  0  0  0  0
 34 37  1  0  0  0  0
 37 38  1  0  0  0  0
 37 39  1  0  0  0  0
 37 40  1  0  0  0  0
 40 41  1  0  0  0  0
 40 45  1  0  0  0  0
 40 49  1  0  0  0  0
 41 42  1  0  0  0  0
 41 43  1  0  0  0  0
 41 44  1  0  0  0  0
 45 46  1  0  0  0  0
 45 47  1  0  0  0  0
 45 48  1  0  0  0  0
 49 50  1  0  0  0  0
 49 51  1  0  0  0  0
 49 52  1  0  0  0  0
 52 53  2  0  0  0  0
 52 54  1  0  0  0  0
M  END
$$$$
