/home/yang/projects/t99_calc/v1/qchem_data/combined/log_fchk/71_octene.log
 OpenBabel05152619573D
Gaussian 16 # opt freq wb97xd/6-311+g(2d,2p) geom=connectivity
 24 23  0  0  0  0  0  0  0  0999 V2000
    2.8426    0.3438    0.3820 C   0  0  0  0  0  0  0  0  0  0  0  0
    2.8522    0.1823    1.7184 F   0  0  0  0  0  0  0  0  0  0  0  0
    2.7974    1.6631    0.1110 F   0  0  0  0  0  0  0  0  0  0  0  0
    4.0994   -0.2497   -0.2089 C   0  0  0  0  0  0  0  0  0  0  0  0
    4.2663   -1.5203    0.1654 F   0  0  0  0  0  0  0  0  0  0  0  0
    1.5422   -0.3086   -0.1837 C   0  0  0  0  0  0  0  0  0  0  0  0
    0.2369    0.4912    0.1287 C   0  0  0  0  0  0  0  0  0  0  0  0
   -1.0587   -0.3661   -0.0458 C   0  0  0  0  0  0  0  0  0  0  0  0
   -2.3507    0.4986   -0.1834 C   0  0  0  0  0  0  0  0  0  0  0  0
    1.4317   -1.5441    0.3245 F   0  0  0  0  0  0  0  0  0  0  0  0
    1.6669   -0.3981   -1.5170 F   0  0  0  0  0  0  0  0  0  0  0  0
    0.1741    1.5424   -0.7004 F   0  0  0  0  0  0  0  0  0  0  0  0
    0.2781    0.9341    1.3909 F   0  0  0  0  0  0  0  0  0  0  0  0
   -1.1850   -1.1680    1.0195 F   0  0  0  0  0  0  0  0  0  0  0  0
   -0.9449   -1.1204   -1.1470 F   0  0  0  0  0  0  0  0  0  0  0  0
   -2.3991    1.0089   -1.4186 F   0  0  0  0  0  0  0  0  0  0  0  0
   -2.3199    1.5010    0.7057 F   0  0  0  0  0  0  0  0  0  0  0  0
    4.9495    0.3742   -0.9923 C   0  0  0  0  0  0  0  0  0  0  0  0
   -3.6706   -0.2945    0.0514 C   0  0  0  0  0  0  0  0  0  0  0  0
   -3.6874   -1.4000   -0.6835 F   0  0  0  0  0  0  0  0  0  0  0  0
   -4.6946    0.4713   -0.3037 F   0  0  0  0  0  0  0  0  0  0  0  0
   -3.8073   -0.6183    1.3284 F   0  0  0  0  0  0  0  0  0  0  0  0
    4.7710    1.3984   -1.2750 H   0  0  0  0  0  0  0  0  0  0  0  0
    5.8294   -0.1355   -1.3540 H   0  0  0  0  0  0  0  0  0  0  0  0
  1  2  1  0  0  0  0
  3  1  1  0  0  0  0
  4  5  1  0  0  0  0
  4  1  1  0  0  0  0
  6  7  1  0  0  0  0
  6 10  1  0  0  0  0
  6  1  1  0  0  0  0
  7 13  1  0  0  0  0
  8  7  1  0  0  0  0
  8 14  1  0  0  0  0
  9  8  1  0  0  0  0
  9 19  1  0  0  0  0
  9 17  1  0  0  0  0
 11  6  1  0  0  0  0
 12  7  1  0  0  0  0
 15  8  1  0  0  0  0
 16  9  1  0  0  0  0
 18  4  2  0  0  0  0
 19 22  1  0  0  0  0
 20 19  1  0  0  0  0
 21 19  1  0  0  0  0
 23 18  1  0  0  0  0
 24 18  1  0  0  0  0
M  END
>  <program>
Gaussian 16, Revision A.03

>  <basis>
6-311+G(2d,2p) (5D, 7F)

>  <File Format>
g03

$$$$
