/home/yang/projects/t99_calc/v1/qchem_data/combined/log_fchk/allene.log
 OpenBabel05152619573D
Gaussian applications/g16/g16/g16 # opt freq rwb97xd/6-311+g(2d,2p) geom=connect
  7  6  0  0  0  0  0  0  0  0999 V2000
   -1.2908    0.0002    0.0002 C   0  0  0  0  0  0  0  0  0  0  0  0
   -0.0000    0.0001    0.0002 C   0  0  0  0  0  0  0  0  0  0  0  0
   -2.0491    0.7585   -0.7569 F   0  0  0  0  0  0  0  0  0  0  0  0
   -2.0492   -0.7586    0.7568 F   0  0  0  0  0  0  0  0  0  0  0  0
    1.2908   -0.0002    0.0002 C   0  0  0  0  0  0  0  0  0  0  0  0
    2.0490   -0.7579   -0.7576 F   0  0  0  0  0  0  0  0  0  0  0  0
    2.0493    0.7579    0.7574 F   0  0  0  0  0  0  0  0  0  0  0  0
  1  4  1  0  0  0  0
  2  5  2  0  0  0  0
  2  1  2  0  0  0  0
  3  1  1  0  0  0  0
  5  7  1  0  0  0  0
  6  5  1  0  0  0  0
M  END
>  <program>
Gaussian 16, Revision A.03

>  <basis>
6-311+G(2d,2p) (5D, 7F)

>  <File Format>
g03

$$$$
