/home/yang/projects/t99_calc/v1/qchem_data/combined/log_fchk/allyl.log
 OpenBabel05152619573D
Gaussian applications/g16/g16/g16 # opt freq uwb97xd/6-311+g(2d,2p) geom=connect
  8  7  0  0  0  0  0  0  0  0999 V2000
   -1.2299   -0.1553    0.0479 C   0  0  0  0  0  0  0  0  0  0  0  0
    0.0001    0.4573   -0.0001 C   0  0  0  0  0  0  0  0  0  0  0  0
   -1.3925   -1.4553    0.0549 F   0  0  0  0  0  0  0  0  0  0  0  0
   -2.3536    0.5097   -0.0491 F   0  0  0  0  0  0  0  0  0  0  0  0
   -0.0001    1.7933   -0.0001 F   0  0  0  0  0  0  0  0  0  0  0  0
    1.2299   -0.1552   -0.0477 C   0  0  0  0  0  3  0  0  0  0  0  0
    1.3925   -1.4553   -0.0550 F   0  0  0  0  0  0  0  0  0  0  0  0
    2.3537    0.5097    0.0492 F   0  0  0  0  0  0  0  0  0  0  0  0
  1  3  1  0  0  0  0
  2  1  2  0  0  0  0
  4  1  1  0  0  0  0
  5  2  1  0  0  0  0
  6  2  1  0  0  0  0
  6  8  1  0  0  0  0
  7  6  1  0  0  0  0
M  END
>  <program>
Gaussian 16, Revision A.03

>  <basis>
6-311+G(2d,2p) (5D, 7F)

>  <File Format>
g03

$$$$
