/home/yang/projects/t99_calc/v1/qchem_data/combined/log_fchk/butane1H.log
 OpenBabel05152619573D
Gaussian 16 # opt freq wb97xd/6-311+g(2d,2p) geom=connectivity
 14 13  0  0  0  0  0  0  0  0999 V2000
   -1.7820    0.0255    0.0916 C   0  0  0  0  0  0  0  0  0  0  0  0
   -2.6110   -1.0104    0.0631 F   0  0  0  0  0  0  0  0  0  0  0  0
   -1.9645    0.6825    1.2278 F   0  0  0  0  0  0  0  0  0  0  0  0
   -2.0671    0.8298   -0.9259 F   0  0  0  0  0  0  0  0  0  0  0  0
   -0.3207   -0.4987   -0.0177 C   0  0  0  0  0  0  0  0  0  0  0  0
   -0.0506   -1.1750    1.1076 F   0  0  0  0  0  0  0  0  0  0  0  0
   -0.2682   -1.3412   -1.0563 F   0  0  0  0  0  0  0  0  0  0  0  0
    0.7492    0.6101   -0.2237 C   0  0  0  0  0  0  0  0  0  0  0  0
    0.4995    1.6355    0.6101 F   0  0  0  0  0  0  0  0  0  0  0  0
    0.6584    1.0602   -1.4880 F   0  0  0  0  0  0  0  0  0  0  0  0
    2.2131    0.1782   -0.0001 C   0  0  0  0  0  0  0  0  0  0  0  0
    2.4739   -0.9392   -0.7019 F   0  0  0  0  0  0  0  0  0  0  0  0
    2.4379   -0.0614    1.3014 F   0  0  0  0  0  0  0  0  0  0  0  0
    2.8676    0.9830   -0.3404 H   0  0  0  0  0  0  0  0  0  0  0  0
  1  3  1  0  0  0  0
  2  1  1  0  0  0  0
  4  1  1  0  0  0  0
  5  1  1  0  0  0  0
  5  6  1  0  0  0  0
  7  5  1  0  0  0  0
  8  5  1  0  0  0  0
  8 11  1  0  0  0  0
  8  9  1  0  0  0  0
 10  8  1  0  0  0  0
 11 13  1  0  0  0  0
 12 11  1  0  0  0  0
 14 11  1  0  0  0  0
M  END
>  <program>
Gaussian 16, Revision A.03

>  <basis>
6-311+G(2d,2p) (5D, 7F)

>  <File Format>
g03

$$$$
