Title Card Required
 OpenBabel05152619573D

 14 13  0  0  0  0  0  0  0  0999 V2000
    1.9960   -0.1175    0.0751 C   0  0  0  0  0  0  0  0  0  0  0  0
    2.9091    0.8203   -0.1401 F   0  0  0  0  0  0  0  0  0  0  0  0
    2.1549   -0.5919    1.3016 F   0  0  0  0  0  0  0  0  0  0  0  0
    2.1751   -1.0999   -0.7990 F   0  0  0  0  0  0  0  0  0  0  0  0
    0.5836    0.5153   -0.0941 C   0  0  0  0  0  0  0  0  0  0  0  0
    0.4104    1.3893    0.9072 F   0  0  0  0  0  0  0  0  0  0  0  0
    0.5675    1.1760   -1.2571 F   0  0  0  0  0  0  0  0  0  0  0  0
   -0.5836   -0.5153   -0.0941 C   0  0  0  0  0  0  0  0  0  0  0  0
   -0.4103   -1.3893    0.9072 F   0  0  0  0  0  0  0  0  0  0  0  0
   -0.5675   -1.1760   -1.2571 F   0  0  0  0  0  0  0  0  0  0  0  0
   -1.9960    0.1175    0.0751 C   0  0  0  0  0  0  0  0  0  0  0  0
   -2.9091   -0.8203   -0.1402 F   0  0  0  0  0  0  0  0  0  0  0  0
   -2.1750    1.1000   -0.7989 F   0  0  0  0  0  0  0  0  0  0  0  0
   -2.1550    0.5918    1.3017 F   0  0  0  0  0  0  0  0  0  0  0  0
  1  2  1  0  0  0  0
  1  3  1  0  0  0  0
  1  4  1  0  0  0  0
  1  5  1  0  0  0  0
  5  6  1  0  0  0  0
  5  7  1  0  0  0  0
  5  8  1  0  0  0  0
  8  9  1  0  0  0  0
  8 10  1  0  0  0  0
  8 11  1  0  0  0  0
 11 12  1  0  0  0  0
 11 13  1  0  0  0  0
 11 14  1  0  0  0  0
M  END
$$$$
