/home/yang/projects/t99_calc/v1/qchem_data/combined/log_fchk/butene.log
 OpenBabel05152619573D
Gaussian applications/g16/g16/g16 #p opt freq wb97xd/6-311+g(2d) scf=xqc
 12 11  0  0  0  0  0  0  0  0999 V2000
    1.9481   -0.2308   -0.0878 C   0  0  0  0  0  0  0  0  0  0  0  0
    0.8927    0.5366    0.1415 C   0  0  0  0  0  0  0  0  0  0  0  0
    1.9954   -1.5182    0.1006 F   0  0  0  0  0  0  0  0  0  0  0  0
    3.0749    0.2411   -0.5426 F   0  0  0  0  0  0  0  0  0  0  0  0
    0.9727    1.8400   -0.1221 F   0  0  0  0  0  0  0  0  0  0  0  0
   -0.4460    0.0832    0.6552 C   0  0  0  0  0  0  0  0  0  0  0  0
   -1.4890   -0.1530   -0.4685 C   0  0  0  0  0  0  0  0  0  0  0  0
   -0.3304   -1.0688    1.3370 F   0  0  0  0  0  0  0  0  0  0  0  0
   -2.6576   -0.5023    0.0488 F   0  0  0  0  0  0  0  0  0  0  0  0
   -1.0666   -1.1263   -1.2724 F   0  0  0  0  0  0  0  0  0  0  0  0
   -0.9444    1.0237    1.4770 F   0  0  0  0  0  0  0  0  0  0  0  0
   -1.6478    0.9535   -1.1867 F   0  0  0  0  0  0  0  0  0  0  0  0
  1  3  1  0  0  0  0
  1  2  2  0  0  0  0
  2  6  1  0  0  0  0
  4  1  1  0  0  0  0
  5  2  1  0  0  0  0
  6  8  1  0  0  0  0
  6 11  1  0  0  0  0
  7  9  1  0  0  0  0
  7  6  1  0  0  0  0
 10  7  1  0  0  0  0
 12  7  1  0  0  0  0
M  END
>  <program>
Gaussian 16, Revision A.03

>  <basis>
6-311+G(2d) (5D, 7F)

>  <File Format>
g03

$$$$
