/home/yang/projects/t99_calc/v1/qchem_data/combined/log_fchk/butene_OH.log
 OpenBabel05152619573D
Gaussian 16 # opt freq uwb97xd/6-311+g(2d,2p) geom=connectivity scf=xqc
 14 13  0  0  1  0  0  0  0  0999 V2000
   -2.4404   -0.4242    1.2456 F   0  0  0  0  0  0  0  0  0  0  0  0
   -2.2551    1.3318   -0.1292 O   0  0  0  0  0  0  0  0  0  0  0  0
   -1.8441    1.8082    0.5971 H   0  0  0  0  0  0  0  0  0  0  0  0
   -2.0453    0.0046    0.0100 C   0  0  0  0  0  0  0  0  0  0  0  0
   -2.8243   -0.6229   -0.8810 F   0  0  0  0  0  0  0  0  0  0  0  0
   -0.6183   -0.4144   -0.2043 C   0  0  1  0  0  3  0  0  0  0  0  0
    0.5509    0.5085   -0.1354 C   0  0  0  0  0  0  0  0  0  0  0  0
    0.3896    1.3789    0.9036 F   0  0  0  0  0  0  0  0  0  0  0  0
    0.6519    1.2598   -1.2523 F   0  0  0  0  0  0  0  0  0  0  0  0
   -0.3843   -1.7091   -0.2153 F   0  0  0  0  0  0  0  0  0  0  0  0
    1.9148   -0.2001    0.0759 C   0  0  0  0  0  0  0  0  0  0  0  0
    2.1844   -0.9997   -0.9477 F   0  0  0  0  0  0  0  0  0  0  0  0
    1.8935   -0.9128    1.1962 F   0  0  0  0  0  0  0  0  0  0  0  0
    2.8709    0.7129    0.1686 F   0  0  0  0  0  0  0  0  0  0  0  0
  2  4  1  0  0  0  0
  2  3  1  0  0  0  0
  4  1  1  0  0  0  0
  5  4  1  0  0  0  0
  6 10  1  1  0  0  0
  6  7  1  0  0  0  0
  6  4  1  0  0  0  0
  7 11  1  0  0  0  0
  7  8  1  0  0  0  0
  9  7  1  0  0  0  0
 11 14  1  0  0  0  0
 11 13  1  0  0  0  0
 12 11  1  0  0  0  0
M  END
>  <program>
Gaussian 16, Revision A.03

>  <basis>
6-311+G(2d,2p) (5D, 7F)

>  <File Format>
g03

$$$$
