/home/yang/projects/t99_calc/v1/qchem_data/combined/log_fchk/butene_2OH.log
 OpenBabel05152619573D
Gaussian 16 # opt freq wb97xd/6-311+g(2d,2p) geom=connectivity scf=xqc
 14 13  0  0  1  0  0  0  0  0999 V2000
    2.5989   -0.8212    0.8048 F   0  0  0  0  0  0  0  0  0  0  0  0
    2.1872    0.1329    0.0041 C   0  0  0  0  0  3  0  0  0  0  0  0
    2.5609   -0.0790   -1.2403 F   0  0  0  0  0  0  0  0  0  0  0  0
   -0.3115   -0.4657   -0.0750 C   0  0  0  0  0  0  0  0  0  0  0  0
   -0.1770   -1.4296    0.8471 F   0  0  0  0  0  0  0  0  0  0  0  0
   -0.0870   -1.0001   -1.2870 F   0  0  0  0  0  0  0  0  0  0  0  0
    0.6677    0.9607    1.5253 F   0  0  0  0  0  0  0  0  0  0  0  0
   -1.7919    0.0125   -0.0432 C   0  0  0  0  0  0  0  0  0  0  0  0
   -2.0659    0.7877   -1.0814 F   0  0  0  0  0  0  0  0  0  0  0  0
   -2.0499    0.6766    1.0761 F   0  0  0  0  0  0  0  0  0  0  0  0
   -2.5835   -1.0550   -0.0955 F   0  0  0  0  0  0  0  0  0  0  0  0
    0.7621    0.6280    0.1996 C   0  0  1  0  0  0  0  0  0  0  0  0
    0.4911    1.6852   -0.6088 O   0  0  0  0  0  0  0  0  0  0  0  0
    1.2196    2.3109   -0.5860 H   0  0  0  0  0  0  0  0  0  0  0  0
  2 12  1  0  0  0  0
  2  1  1  0  0  0  0
  3  2  1  0  0  0  0
  4  8  1  0  0  0  0
  4 12  1  0  0  0  0
  4  5  1  0  0  0  0
  6  4  1  0  0  0  0
  8 10  1  0  0  0  0
  9  8  1  0  0  0  0
 11  8  1  0  0  0  0
 12  7  1  1  0  0  0
 13 14  1  0  0  0  0
 13 12  1  0  0  0  0
M  END
>  <program>
Gaussian 16, Revision A.03

>  <basis>
6-311+G(2d,2p) (5D, 7F)

>  <File Format>
g03

$$$$
