c4f8 geom opt
 OpenBabel05152619573D

 11 10  0  0  1  0  0  0  0  0999 V2000
   -2.1087    0.0463    0.0000 C   0  0  0  0  0  0  0  0  0  0  0  0
   -0.7999   -0.3518   -0.0001 C   0  0  0  0  0  0  0  0  0  0  0  0
   -2.4953    1.2911    0.0001 F   0  0  0  0  0  0  0  0  0  0  0  0
   -3.0998   -0.8014    0.0000 F   0  0  0  0  0  0  0  0  0  0  0  0
   -0.5917   -1.6702   -0.0001 F   0  0  0  0  0  0  0  0  0  0  0  0
    0.3234    0.4582   -0.0002 C   0  0  2  0  0  3  0  0  0  0  0  0
    1.7358   -0.0560    0.0000 C   0  0  0  0  0  0  0  0  0  0  0  0
    2.5876    0.9641   -0.0008 F   0  0  0  0  0  0  0  0  0  0  0  0
    1.9901   -0.8124   -1.0755 F   0  0  0  0  0  0  0  0  0  0  0  0
    0.1851    1.7753   -0.0001 F   0  0  0  0  0  0  0  0  0  0  0  0
    1.9903   -0.8110    1.0765 F   0  0  0  0  0  0  0  0  0  0  0  0
  1  2  2  0  0  0  0
  1  3  1  0  0  0  0
  1  4  1  0  0  0  0
  2  5  1  0  0  0  0
  2  6  1  0  0  0  0
  6  7  1  0  0  0  0
  6 10  1  1  0  0  0
  7  8  1  0  0  0  0
  7  9  1  0  0  0  0
  7 11  1  0  0  0  0
M  END
$$$$
