/home/yang/projects/t99_calc/v1/qchem_data/combined/log_fchk/c2_rad.log
 OpenBabel05152619573D
Gaussian applications/g16/g16/g16 # opt uwb97xd/6-311+g(2d,2p) geom=connectivity
  7  6  0  0  0  0  0  0  0  0999 V2000
   -0.6098    0.0000   -0.0196 C   0  0  0  0  0  0  0  0  0  0  0  0
   -1.1851   -1.0832   -0.5293 F   0  0  0  0  0  0  0  0  0  0  0  0
   -1.1849    1.0837   -0.5285 F   0  0  0  0  0  0  0  0  0  0  0  0
    0.8692    0.0000   -0.3570 C   0  0  0  0  0  3  0  0  0  0  0  0
    1.5075   -1.0901    0.0035 F   0  0  0  0  0  0  0  0  0  0  0  0
    1.5076    1.0900    0.0035 F   0  0  0  0  0  0  0  0  0  0  0  0
   -0.8181   -0.0004    1.3019 F   0  0  0  0  0  0  0  0  0  0  0  0
  1  7  1  0  0  0  0
  2  1  1  0  0  0  0
  3  1  1  0  0  0  0
  4  1  1  0  0  0  0
  4  5  1  0  0  0  0
  4  6  1  0  0  0  0
M  END
>  <program>
Gaussian 16, Revision A.03

>  <basis>
6-311+G(2d,2p) (5D, 7F)

>  <File Format>
g03

$$$$
