Title Card Required
 OpenBabel05152619573D

  6  5  0  0  0  0  0  0  0  0999 V2000
    0.6588   -0.0001   -0.0000 C   0  0  0  0  0  0  0  0  0  0  0  0
   -0.6588   -0.0001   -0.0000 C   0  0  0  0  0  0  0  0  0  0  0  0
   -1.3799    1.0957    0.0000 F   0  0  0  0  0  0  0  0  0  0  0  0
    1.3801   -1.0956    0.0000 F   0  0  0  0  0  0  0  0  0  0  0  0
   -1.3801   -1.0956   -0.0000 F   0  0  0  0  0  0  0  0  0  0  0  0
    1.3799    1.0956   -0.0000 F   0  0  0  0  0  0  0  0  0  0  0  0
  1  2  2  0  0  0  0
  1  4  1  0  0  0  0
  1  6  1  0  0  0  0
  2  3  1  0  0  0  0
  2  5  1  0  0  0  0
M  END
$$$$
