Title Card Required
 OpenBabel05152619573D

  9  8  0  0  0  0  0  0  0  0999 V2000
   -0.6277   -0.0136   -0.0125 C   0  0  0  0  0  0  0  0  0  0  0  0
    0.9285    0.0086   -1.5359 H   0  0  0  0  0  0  0  0  0  0  0  0
   -1.2349   -1.0456   -0.6093 F   0  0  0  0  0  0  0  0  0  0  0  0
   -0.6904   -0.2073    1.3233 F   0  0  0  0  0  0  0  0  0  0  0  0
    1.4207    1.1274    0.0478 F   0  0  0  0  0  0  0  0  0  0  0  0
    1.4966   -1.0622    0.0478 F   0  0  0  0  0  0  0  0  0  0  0  0
    0.8468    0.0005   -0.4489 C   0  0  0  0  0  0  0  0  0  0  0  0
   -0.8771    1.8699    0.0457 H   0  0  0  0  0  0  0  0  0  0  0  0
   -1.2868    1.1112   -0.3785 O   0  0  0  0  0  0  0  0  0  0  0  0
  1  3  1  0  0  0  0
  1  4  1  0  0  0  0
  1  7  1  0  0  0  0
  1  9  1  0  0  0  0
  2  7  1  0  0  0  0
  5  7  1  0  0  0  0
  6  7  1  0  0  0  0
  8  9  1  0  0  0  0
M  END
$$$$
