/home/yang/projects/t99_calc/v1/qchem_data/combined/log_fchk/c2f4o2.log
 OpenBabel05152619573D
Gaussian 16 # opt freq wb97xd/6-311+g(2d,2p) geom=connectivity
  8  7  0  0  0  0  0  0  0  0999 V2000
   -0.9814    0.4171    0.1171 C   0  0  0  0  0  3  0  0  0  0  0  0
    0.5278    0.3640    0.0938 C   0  0  0  0  0  0  0  0  0  0  0  0
    1.0160    1.4475   -0.4966 F   0  0  0  0  0  0  0  0  0  0  0  0
   -1.5874   -0.3206    1.0108 F   0  0  0  0  0  0  0  0  0  0  0  0
    0.9954    0.2714    1.3301 F   0  0  0  0  0  0  0  0  0  0  0  0
    1.0757   -0.7115   -0.6874 O   0  0  0  0  0  0  0  0  0  0  0  0
    0.5306   -1.8486   -0.3478 O   0  0  0  0  0  1  0  0  0  0  0  0
   -1.5496    0.3567   -1.0648 F   0  0  0  0  0  0  0  0  0  0  0  0
  1  4  1  0  0  0  0
  2  1  1  0  0  0  0
  2  5  1  0  0  0  0
  3  2  1  0  0  0  0
  6  7  1  0  0  0  0
  6  2  1  0  0  0  0
  8  1  1  0  0  0  0
M  END
>  <program>
Gaussian 16, Revision A.03

>  <basis>
6-311+G(2d,2p) (5D, 7F)

>  <File Format>
g03

$$$$
