Title Card Required
 OpenBabel05152619573D

  7  6  0  0  0  0  0  0  0  0999 V2000
    0.8714    0.0000   -0.3554 C   0  0  0  0  0  3  0  0  0  0  0  0
    1.5102    1.0884    0.0036 F   0  0  0  0  0  0  0  0  0  0  0  0
    1.5100   -1.0884    0.0037 F   0  0  0  0  0  0  0  0  0  0  0  0
   -0.6117    0.0001   -0.0199 C   0  0  0  0  0  0  0  0  0  0  0  0
   -0.8208   -0.0004    1.3011 F   0  0  0  0  0  0  0  0  0  0  0  0
   -1.1863   -1.0818   -0.5295 F   0  0  0  0  0  0  0  0  0  0  0  0
   -1.1862    1.0822   -0.5287 F   0  0  0  0  0  0  0  0  0  0  0  0
  1  2  1  0  0  0  0
  1  3  1  0  0  0  0
  1  4  1  0  0  0  0
  4  5  1  0  0  0  0
  4  6  1  0  0  0  0
  4  7  1  0  0  0  0
M  END
$$$$
