/home/yang/projects/t99_calc/v1/qchem_data/combined/log_fchk/c2f5cof_oh.log
 OpenBabel05152619573D
Gaussian 16 # opt freq wb97xd/6-311+g(2d) geom=connectivity
 12 11  0  0  1  0  0  0  0  0999 V2000
    1.2942   -0.2591    0.0173 C   0  0  0  0  0  0  0  0  0  0  0  0
    2.3435    0.5526    0.0912 F   0  0  0  0  0  0  0  0  0  0  0  0
    1.3103   -1.0705    1.0678 F   0  0  0  0  0  0  0  0  0  0  0  0
    1.3977   -0.9836   -1.0885 F   0  0  0  0  0  0  0  0  0  0  0  0
   -0.0008    0.5968    0.0045 C   0  0  0  0  0  0  0  0  0  0  0  0
    0.0134    1.3710    1.0961 F   0  0  0  0  0  0  0  0  0  0  0  0
    0.0386    1.3803   -1.0857 F   0  0  0  0  0  0  0  0  0  0  0  0
   -1.3387   -0.9839   -1.1296 F   0  0  0  0  0  0  0  0  0  0  0  0
   -2.4099    0.6462   -0.0718 O   0  0  0  0  0  1  0  0  0  0  0  0
   -1.3448   -0.1803   -0.0300 C   0  0  2  0  0  0  0  0  0  0  0  0
   -1.4943   -0.8933    1.1230 O   0  0  0  0  0  0  0  0  0  0  0  0
   -2.3394   -1.3609    1.0781 H   0  0  0  0  0  0  0  0  0  0  0  0
  1  2  1  0  0  0  0
  1  3  1  0  0  0  0
  4  1  1  0  0  0  0
  5  1  1  0  0  0  0
  5  6  1  0  0  0  0
  7  5  1  0  0  0  0
  9 10  1  0  0  0  0
 10  8  1  6  0  0  0
 10  5  1  0  0  0  0
 10 11  1  0  0  0  0
 12 11  1  0  0  0  0
M  END
>  <program>
Gaussian 16, Revision A.03

>  <basis>
6-311+G(2d) (5D, 7F)

>  <File Format>
g03

$$$$
