Title Card Required
 OpenBabel05152619573D

  9  8  0  0  0  0  0  0  0  0999 V2000
    1.2361    0.6406    1.0801 F   0  0  0  0  0  0  0  0  0  0  0  0
    1.2333   -1.2292   -0.0000 F   0  0  0  0  0  0  0  0  0  0  0  0
   -1.1963   -0.6756   -1.0798 F   0  0  0  0  0  0  0  0  0  0  0  0
   -1.1963   -0.6756    1.0798 F   0  0  0  0  0  0  0  0  0  0  0  0
   -0.7687    0.0129    0.0000 C   0  0  0  0  0  0  0  0  0  0  0  0
    0.7800    0.0190    0.0000 C   0  0  0  0  0  0  0  0  0  0  0  0
    1.2361    0.6406   -1.0801 F   0  0  0  0  0  0  0  0  0  0  0  0
   -1.2136    1.2773    0.0000 O   0  0  0  0  0  0  0  0  0  0  0  0
   -2.1750    1.2815    0.0000 H   0  0  0  0  0  0  0  0  0  0  0  0
  1  6  1  0  0  0  0
  2  6  1  0  0  0  0
  3  5  1  0  0  0  0
  4  5  1  0  0  0  0
  5  6  1  0  0  0  0
  5  8  1  0  0  0  0
  6  7  1  0  0  0  0
  8  9  1  0  0  0  0
M  END
$$$$
