/home/yang/projects/t99_calc/v1/qchem_data/combined/log_fchk/c2f5cof.log
 OpenBabel05152619573D
Gaussian 16 # opt freq wb97xd/6-311+g(2d) geom=connectivity
 10  9  0  0  0  0  0  0  0  0999 V2000
    1.0800    0.2559   -0.1993 C   0  0  0  0  0  0  0  0  0  0  0  0
    2.1788   -0.3883    0.1588 F   0  0  0  0  0  0  0  0  0  0  0  0
    1.0352    0.3412   -1.5253 F   0  0  0  0  0  0  0  0  0  0  0  0
    1.1102    1.4807    0.3089 F   0  0  0  0  0  0  0  0  0  0  0  0
   -0.1686   -0.5122    0.3105 C   0  0  0  0  0  0  0  0  0  0  0  0
   -0.1004   -1.7634   -0.1440 F   0  0  0  0  0  0  0  0  0  0  0  0
   -0.1405   -0.5254    1.6519 F   0  0  0  0  0  0  0  0  0  0  0  0
   -1.7457    1.2379    0.4865 F   0  0  0  0  0  0  0  0  0  0  0  0
   -1.4944    0.1142   -0.1745 C   0  0  0  0  0  0  0  0  0  0  0  0
   -2.1926   -0.3239   -1.0065 O   0  0  0  0  0  0  0  0  0  0  0  0
  1  2  1  0  0  0  0
  1  4  1  0  0  0  0
  1  5  1  0  0  0  0
  3  1  1  0  0  0  0
  5  7  1  0  0  0  0
  6  5  1  0  0  0  0
  9  5  1  0  0  0  0
  9  8  1  0  0  0  0
 10  9  2  0  0  0  0
M  END
>  <program>
Gaussian 16, Revision A.03

>  <basis>
6-311+G(2d) (5D, 7F)

>  <File Format>
g03

$$$$
