Title Card Required
 OpenBabel05152619573D

  8  7  0  0  0  0  0  0  0  0999 V2000
    0.0000    0.0000    0.7749 C   0  0  0  0  0  0  0  0  0  0  0  0
    0.0000    0.0000   -0.7749 C   0  0  0  0  0  0  0  0  0  0  0  0
   -0.6239    1.0806    1.2241 F   0  0  0  0  0  0  0  0  0  0  0  0
    0.6239    1.0806   -1.2241 F   0  0  0  0  0  0  0  0  0  0  0  0
    1.2477   -0.0000    1.2241 F   0  0  0  0  0  0  0  0  0  0  0  0
    0.6239   -1.0806   -1.2241 F   0  0  0  0  0  0  0  0  0  0  0  0
   -0.6239   -1.0806    1.2241 F   0  0  0  0  0  0  0  0  0  0  0  0
   -1.2477   -0.0000   -1.2241 F   0  0  0  0  0  0  0  0  0  0  0  0
  1  2  1  0  0  0  0
  1  3  1  0  0  0  0
  1  5  1  0  0  0  0
  1  7  1  0  0  0  0
  2  4  1  0  0  0  0
  2  6  1  0  0  0  0
  2  8  1  0  0  0  0
M  END
$$$$
