/home/yang/projects/t99_calc/v1/qchem_data/combined/log_fchk/c2h6.log
 OpenBabel05152619573D
Gaussian applications/g16/g16/g16 # opt freq wb97xd/6-311+g(2d) geom=connectivit
  8  7  0  0  0  0  0  0  0  0999 V2000
    0.0000   -0.0000    0.7609 C   0  0  0  0  0  0  0  0  0  0  0  0
    0.5081   -0.8802    1.1601 H   0  0  0  0  0  0  0  0  0  0  0  0
   -1.0163    0.0001    1.1601 H   0  0  0  0  0  0  0  0  0  0  0  0
    0.5082    0.8801    1.1601 H   0  0  0  0  0  0  0  0  0  0  0  0
   -0.0000   -0.0000   -0.7609 C   0  0  0  0  0  0  0  0  0  0  0  0
   -0.5082    0.8801   -1.1601 H   0  0  0  0  0  0  0  0  0  0  0  0
    1.0163    0.0001   -1.1601 H   0  0  0  0  0  0  0  0  0  0  0  0
   -0.5081   -0.8802   -1.1601 H   0  0  0  0  0  0  0  0  0  0  0  0
  1  2  1  0  0  0  0
  1  3  1  0  0  0  0
  1  4  1  0  0  0  0
  5  1  1  0  0  0  0
  6  5  1  0  0  0  0
  7  5  1  0  0  0  0
  8  5  1  0  0  0  0
M  END
>  <program>
Gaussian 16, Revision A.03

>  <basis>
6-311+G(2d) (5D, 7F)

>  <File Format>
g03

$$$$
