/home/yang/projects/t99_calc/v1/qchem_data/combined/log_fchk/c3_oco2h.log
 OpenBabel05152619573D
Gaussian 16 # opt freq wb97xd/6-311+g(2d) geom=connectivity
 15 14  0  0  0  0  0  0  0  0999 V2000
    2.1340   -0.1633   -0.0001 C   0  0  0  0  0  0  0  0  0  0  0  0
    3.1154    0.7308   -0.0005 F   0  0  0  0  0  0  0  0  0  0  0  0
    2.2509   -0.9234    1.0802 F   0  0  0  0  0  0  0  0  0  0  0  0
    2.2505   -0.9240   -1.0800 F   0  0  0  0  0  0  0  0  0  0  0  0
    0.7768    0.5941   -0.0001 C   0  0  0  0  0  0  0  0  0  0  0  0
    0.7428    1.3682    1.0916 F   0  0  0  0  0  0  0  0  0  0  0  0
    0.7426    1.3680   -1.0919 F   0  0  0  0  0  0  0  0  0  0  0  0
   -0.4777   -1.0900    1.0833 F   0  0  0  0  0  0  0  0  0  0  0  0
   -0.4778   -1.0903   -1.0829 F   0  0  0  0  0  0  0  0  0  0  0  0
   -0.4874   -0.3120    0.0001 C   0  0  0  0  0  0  0  0  0  0  0  0
   -1.5592    0.5442    0.0000 O   0  0  0  0  0  0  0  0  0  0  0  0
   -2.8144    0.0150    0.0001 C   0  0  0  0  0  0  0  0  0  0  0  0
   -3.0933   -1.1404    0.0002 O   0  0  0  0  0  0  0  0  0  0  0  0
   -3.6513    1.0422   -0.0002 O   0  0  0  0  0  0  0  0  0  0  0  0
   -4.5433    0.6742   -0.0001 H   0  0  0  0  0  0  0  0  0  0  0  0
  1  5  1  0  0  0  0
  1  3  1  0  0  0  0
  2  1  1  0  0  0  0
  4  1  1  0  0  0  0
  5 10  1  0  0  0  0
  5  6  1  0  0  0  0
  7  5  1  0  0  0  0
  9 10  1  0  0  0  0
 10  8  1  0  0  0  0
 11 12  1  0  0  0  0
 11 10  1  0  0  0  0
 12 13  2  0  0  0  0
 14 15  1  0  0  0  0
 14 12  1  0  0  0  0
M  END
>  <program>
Gaussian 16, Revision A.03

>  <basis>
6-311+G(2d) (5D, 7F)

>  <File Format>
g03

$$$$
