/home/yang/projects/t99_calc/v1/qchem_data/combined/log_fchk/c3_rad.log
 OpenBabel05152619573D
Gaussian applications/g16/g16/g16 # opt freq uwb97xd/6-311+g(2d,2p) geom=connect
 10  9  0  0  0  0  0  0  0  0999 V2000
   -1.0284   -0.3816    0.0003 C   0  0  0  0  0  0  0  0  0  0  0  0
   -0.9387   -1.1498   -1.0800 F   0  0  0  0  0  0  0  0  0  0  0  0
   -0.9380   -1.1492    1.0807 F   0  0  0  0  0  0  0  0  0  0  0  0
    0.1138    0.6729   -0.0005 C   0  0  0  0  0  0  0  0  0  0  0  0
   -0.0372    1.4313   -1.0969 F   0  0  0  0  0  0  0  0  0  0  0  0
   -0.0370    1.4323    1.0955 F   0  0  0  0  0  0  0  0  0  0  0  0
    1.5237    0.1135   -0.0001 C   0  0  0  0  0  3  0  0  0  0  0  0
    1.8763   -0.5297   -1.0892 F   0  0  0  0  0  0  0  0  0  0  0  0
    1.8762   -0.5284    1.0898 F   0  0  0  0  0  0  0  0  0  0  0  0
   -2.2077    0.2236    0.0004 F   0  0  0  0  0  0  0  0  0  0  0  0
  1 10  1  0  0  0  0
  1  3  1  0  0  0  0
  2  1  1  0  0  0  0
  4  7  1  0  0  0  0
  4  1  1  0  0  0  0
  4  6  1  0  0  0  0
  5  4  1  0  0  0  0
  7  9  1  0  0  0  0
  8  7  1  0  0  0  0
M  END
>  <program>
Gaussian 16, Revision A.03

>  <basis>
6-311+G(2d,2p) (5D, 7F)

>  <File Format>
g03

$$$$
