/home/yang/projects/t99_calc/v1/qchem_data/combined/log_fchk/c3_secondary_rad.log
 OpenBabel05152619573D
Gaussian applications/g16/g16/g16 # opt wb97xd/6-311+g(2d,2p) geom=connectivity 
 10  9  0  0  0  0  0  0  0  0999 V2000
    1.3307   -0.1215   -0.0263 C   0  0  0  0  0  0  0  0  0  0  0  0
    1.4625   -0.6030    1.2185 F   0  0  0  0  0  0  0  0  0  0  0  0
    1.4852   -1.1407   -0.8685 F   0  0  0  0  0  0  0  0  0  0  0  0
   -0.0034    0.5434   -0.2278 C   0  0  0  0  0  3  0  0  0  0  0  0
   -0.0305    1.8448   -0.0508 F   0  0  0  0  0  0  0  0  0  0  0  0
   -1.7779    0.0395    1.2212 F   0  0  0  0  0  0  0  0  0  0  0  0
   -1.2102   -1.4456   -0.2439 F   0  0  0  0  0  0  0  0  0  0  0  0
    2.3054    0.7568   -0.2325 F   0  0  0  0  0  0  0  0  0  0  0  0
   -1.3233   -0.1397   -0.0255 C   0  0  0  0  0  0  0  0  0  0  0  0
   -2.2372    0.3602   -0.8576 F   0  0  0  0  0  0  0  0  0  0  0  0
  1  2  1  0  0  0  0
  3  1  1  0  0  0  0
  4  5  1  0  0  0  0
  4  1  1  0  0  0  0
  4  9  1  0  0  0  0
  7  9  1  0  0  0  0
  8  1  1  0  0  0  0
  9  6  1  0  0  0  0
 10  9  1  0  0  0  0
M  END
>  <program>
Gaussian 16, Revision A.03

>  <basis>
6-311+G(2d,2p) (5D, 7F)

>  <File Format>
g03

$$$$
