/home/yang/projects/t99_calc/v1/qchem_data/combined/log_fchk/c3f5co.log
 OpenBabel05152619573D
Gaussian 16 # opt freq wb97xd/6-311+g(2d) geom=connectivity
  9  8  0  0  1  0  0  0  0  0999 V2000
    1.1224   -0.1023    0.0001 C   0  0  0  0  0  0  0  0  0  0  0  0
    2.0136    0.8832   -0.0018 F   0  0  0  0  0  0  0  0  0  0  0  0
    1.3266   -0.8591   -1.0772 F   0  0  0  0  0  0  0  0  0  0  0  0
   -0.2739    0.4754   -0.0003 C   0  0  2  0  0  3  0  0  0  0  0  0
   -0.3712    1.7765    0.0001 F   0  0  0  0  0  0  0  0  0  0  0  0
    1.3277   -0.8561    1.0790 F   0  0  0  0  0  0  0  0  0  0  0  0
   -2.5777    0.3945   -0.0001 F   0  0  0  0  0  0  0  0  0  0  0  0
   -1.4613   -0.3423   -0.0000 C   0  0  0  0  0  0  0  0  0  0  0  0
   -1.4742   -1.5295    0.0002 O   0  0  0  0  0  0  0  0  0  0  0  0
  1  6  1  0  0  0  0
  2  1  1  0  0  0  0
  3  1  1  0  0  0  0
  4  8  1  0  0  0  0
  4  1  1  0  0  0  0
  4  5  1  1  0  0  0
  7  8  1  0  0  0  0
  8  9  2  0  0  0  0
M  END
>  <program>
Gaussian 16, Revision A.03

>  <basis>
6-311+G(2d) (5D, 7F)

>  <File Format>
g03

$$$$
