/home/yang/projects/t99_calc/v1/qchem_data/combined/log_fchk/c3f6.log
 OpenBabel05152619573D
Gaussian 16 # opt freq uwb97xd/6-311+g(2d,2p) geom=connectivity
  9  8  0  0  0  0  0  0  0  0999 V2000
   -1.4081   -0.1625   -0.0005 C   0  0  0  0  0  0  0  0  0  0  0  0
   -0.2460    0.4728   -0.0014 C   0  0  0  0  0  0  0  0  0  0  0  0
   -2.5490    0.4700    0.0007 F   0  0  0  0  0  0  0  0  0  0  0  0
   -0.2363    1.8054   -0.0006 F   0  0  0  0  0  0  0  0  0  0  0  0
   -1.5658   -1.4546   -0.0003 F   0  0  0  0  0  0  0  0  0  0  0  0
    1.1249   -0.1339   -0.0001 C   0  0  0  0  0  0  0  0  0  0  0  0
    1.8123    0.2636    1.0754 F   0  0  0  0  0  0  0  0  0  0  0  0
    1.0787   -1.4626    0.0017 F   0  0  0  0  0  0  0  0  0  0  0  0
    1.8130    0.2605   -1.0756 F   0  0  0  0  0  0  0  0  0  0  0  0
  1  5  1  0  0  0  0
  1  3  1  0  0  0  0
  2  4  1  0  0  0  0
  2  1  2  0  0  0  0
  2  6  1  0  0  0  0
  6  8  1  0  0  0  0
  6  7  1  0  0  0  0
  9  6  1  0  0  0  0
M  END
>  <program>
Gaussian 16, Revision A.03

>  <basis>
6-311+G(2d,2p) (5D, 7F)

>  <File Format>
g03

$$$$
