/home/yang/projects/t99_calc/v1/qchem_data/combined/log_fchk/c3f6oOH2nd.log
 OpenBabel05152619573D
Gaussian 16 # opt freq uwb97xd/6-311+g(2d,2p) geom=connectivity
 12 11  0  0  1  0  0  0  0  0999 V2000
   -1.2944   -0.2589   -0.0175 C   0  0  0  0  0  0  0  0  0  0  0  0
   -1.4005   -0.9801    1.0901 F   0  0  0  0  0  0  0  0  0  0  0  0
   -1.3088   -1.0735   -1.0657 F   0  0  0  0  0  0  0  0  0  0  0  0
    0.0010    0.5965   -0.0048 C   0  0  0  0  0  0  0  0  0  0  0  0
   -0.0388    1.3803    1.0853 F   0  0  0  0  0  0  0  0  0  0  0  0
   -2.3432    0.5530   -0.0960 F   0  0  0  0  0  0  0  0  0  0  0  0
    1.3350   -0.9879    1.1275 F   0  0  0  0  0  0  0  0  0  0  0  0
    1.3451   -0.1808    0.0304 C   0  0  2  0  0  0  0  0  0  0  0  0
    2.4090    0.6470    0.0787 O   0  0  0  0  0  1  0  0  0  0  0  0
    1.4990   -0.8911   -1.1241 O   0  0  0  0  0  0  0  0  0  0  0  0
    2.3460   -1.3497   -1.0860 H   0  0  0  0  0  0  0  0  0  0  0  0
   -0.0126    1.3706   -1.0965 F   0  0  0  0  0  0  0  0  0  0  0  0
  1  4  1  0  0  0  0
  1  2  1  0  0  0  0
  3  1  1  0  0  0  0
  4  8  1  0  0  0  0
  4  5  1  0  0  0  0
  6  1  1  0  0  0  0
  8  9  1  1  0  0  0
  8  7  1  0  0  0  0
 10 11  1  0  0  0  0
 10  8  1  0  0  0  0
 12  4  1  0  0  0  0
M  END
>  <program>
Gaussian 16, Revision A.03

>  <basis>
6-311+G(2d,2p) (5D, 7F)

>  <File Format>
g03

$$$$
