/home/yang/projects/t99_calc/v1/qchem_data/combined/log_fchk/c3f6o.log
 OpenBabel05152619573D
Gaussian 16 # opt freq wb97xd/6-311+g(2d,2p) geom=connectivity
 10 10  0  0  1  0  0  0  0  0999 V2000
   -0.1136    0.4975   -0.0776 C   0  0  2  0  0  0  0  0  0  0  0  0
   -1.3996   -0.1790   -0.0090 C   0  0  0  0  0  0  0  0  0  0  0  0
   -1.5511   -1.4675    0.2286 F   0  0  0  0  0  0  0  0  0  0  0  0
   -0.0377    1.7946    0.2147 F   0  0  0  0  0  0  0  0  0  0  0  0
   -2.4791    0.4753    0.3767 F   0  0  0  0  0  0  0  0  0  0  0  0
   -0.8697    0.1738   -1.2253 O   0  0  0  0  0  0  0  0  0  0  0  0
    1.2564   -0.1639    0.0535 C   0  0  0  0  0  0  0  0  0  0  0  0
    2.1307    0.4479   -0.7390 F   0  0  0  0  0  0  0  0  0  0  0  0
    1.6798   -0.0638    1.3110 F   0  0  0  0  0  0  0  0  0  0  0  0
    1.2015   -1.4441   -0.2808 F   0  0  0  0  0  0  0  0  0  0  0  0
  1  2  1  0  0  0  0
  1  7  1  0  0  0  0
  1  4  1  1  0  0  0
  2  3  1  0  0  0  0
  2  5  1  0  0  0  0
  6  1  1  0  0  0  0
  6  2  1  0  0  0  0
  7  9  1  0  0  0  0
  8  7  1  0  0  0  0
 10  7  1  0  0  0  0
M  END
>  <program>
Gaussian 16, Revision A.03

>  <basis>
6-311+G(2d,2p) (5D, 7F)

>  <File Format>
g03

$$$$
