Title Card Required
 OpenBabel05152619573D

 10  9  0  0  0  0  0  0  0  0999 V2000
   -1.5236    0.1136    0.0007 C   0  0  0  0  0  3  0  0  0  0  0  0
   -1.8765   -0.5261   -1.0905 F   0  0  0  0  0  0  0  0  0  0  0  0
   -1.8752   -0.5322    1.0887 F   0  0  0  0  0  0  0  0  0  0  0  0
   -0.1139    0.6728    0.0015 C   0  0  0  0  0  0  0  0  0  0  0  0
    0.0372    1.4295    1.0992 F   0  0  0  0  0  0  0  0  0  0  0  0
    0.0366    1.4340   -1.0931 F   0  0  0  0  0  0  0  0  0  0  0  0
    1.0280   -0.3817   -0.0009 C   0  0  0  0  0  0  0  0  0  0  0  0
    0.9376   -1.1479   -1.0822 F   0  0  0  0  0  0  0  0  0  0  0  0
    2.2073    0.2241   -0.0009 F   0  0  0  0  0  0  0  0  0  0  0  0
    0.9393   -1.1512    1.0780 F   0  0  0  0  0  0  0  0  0  0  0  0
  1  2  1  0  0  0  0
  1  3  1  0  0  0  0
  1  4  1  0  0  0  0
  4  5  1  0  0  0  0
  4  6  1  0  0  0  0
  4  7  1  0  0  0  0
  7  8  1  0  0  0  0
  7  9  1  0  0  0  0
  7 10  1  0  0  0  0
M  END
$$$$
