/home/yang/projects/t99_calc/v1/qchem_data/combined/log_fchk/c3f7_2nd.log
 OpenBabel05152619573D
Gaussian applications/g16/g16/g16 # opt freq uwb97xd/6-311+g(2d,2p) geom=connect
 10  9  0  0  0  0  0  0  0  0999 V2000
   -0.0310    1.8454   -0.0509 F   0  0  0  0  0  0  0  0  0  0  0  0
   -0.0034    0.5440   -0.2271 C   0  0  0  0  0  3  0  0  0  0  0  0
    1.3307   -0.1213   -0.0261 C   0  0  0  0  0  0  0  0  0  0  0  0
   -1.3231   -0.1398   -0.0254 C   0  0  0  0  0  0  0  0  0  0  0  0
    2.3051    0.7597   -0.2207 F   0  0  0  0  0  0  0  0  0  0  0  0
    1.4578   -0.6138    1.2148 F   0  0  0  0  0  0  0  0  0  0  0  0
    1.4897   -1.1330   -0.8767 F   0  0  0  0  0  0  0  0  0  0  0  0
   -2.2372    0.3601   -0.8574 F   0  0  0  0  0  0  0  0  0  0  0  0
   -1.2092   -1.4455   -0.2446 F   0  0  0  0  0  0  0  0  0  0  0  0
   -1.7780    0.0384    1.2213 F   0  0  0  0  0  0  0  0  0  0  0  0
  2  1  1  0  0  0  0
  2  3  1  0  0  0  0
  2  4  1  0  0  0  0
  3  6  1  0  0  0  0
  4 10  1  0  0  0  0
  5  3  1  0  0  0  0
  7  3  1  0  0  0  0
  8  4  1  0  0  0  0
  9  4  1  0  0  0  0
M  END
>  <program>
Gaussian 16, Revision A.03

>  <basis>
6-311+G(2d,2p) (5D, 7F)

>  <File Format>
g03

$$$$
