/home/yang/projects/t99_calc/v1/qchem_data/combined/log_fchk/c3f7_t.log
 OpenBabel05152619573D
Gaussian applications/g16/g16/g16 # opt freq uwb97xd/6-311+g(2d,2p) geom=connect
 10  9  0  0  0  0  0  0  0  0999 V2000
    0.0367    1.4326    1.0961 F   0  0  0  0  0  0  0  0  0  0  0  0
    0.0368    1.4326   -1.0961 F   0  0  0  0  0  0  0  0  0  0  0  0
   -0.1137    0.6736   -0.0000 C   0  0  0  0  0  0  0  0  0  0  0  0
   -1.5233    0.1133   -0.0000 C   0  0  0  0  0  3  0  0  0  0  0  0
    1.0283   -0.3811    0.0000 C   0  0  0  0  0  0  0  0  0  0  0  0
   -1.8756   -0.5296    1.0894 F   0  0  0  0  0  0  0  0  0  0  0  0
   -1.8756   -0.5296   -1.0894 F   0  0  0  0  0  0  0  0  0  0  0  0
    2.2078    0.2227    0.0001 F   0  0  0  0  0  0  0  0  0  0  0  0
    0.9378   -1.1496    1.0801 F   0  0  0  0  0  0  0  0  0  0  0  0
    0.9379   -1.1496   -1.0801 F   0  0  0  0  0  0  0  0  0  0  0  0
  2  3  1  0  0  0  0
  3  5  1  0  0  0  0
  3  1  1  0  0  0  0
  4  3  1  0  0  0  0
  4  6  1  0  0  0  0
  5  8  1  0  0  0  0
  5  9  1  0  0  0  0
  7  4  1  0  0  0  0
 10  5  1  0  0  0  0
M  END
>  <program>
Gaussian 16, Revision A.03

>  <basis>
6-311+G(2d,2p) (5D, 7F)

>  <File Format>
g03

$$$$
