/home/yang/projects/t99_calc/v1/qchem_data/combined/log_fchk/c3f7o.log
 OpenBabel05152619573D
Gaussian applications/g16/g16/g16 # opt freq uwb97xd/6-311+g(2d,2p) geom=connect
 11 10  0  0  0  0  0  0  0  0999 V2000
   -1.2641   -0.2549    0.0016 C   0  0  0  0  0  0  0  0  0  0  0  0
   -1.2536   -1.1106    1.0115 F   0  0  0  0  0  0  0  0  0  0  0  0
   -1.3801   -0.9191   -1.1365 F   0  0  0  0  0  0  0  0  0  0  0  0
    0.0231    0.6283    0.0006 C   0  0  0  0  0  0  0  0  0  0  0  0
    0.0100    1.3814    1.1002 F   0  0  0  0  0  0  0  0  0  0  0  0
   -2.3096    0.5528    0.1337 F   0  0  0  0  0  0  0  0  0  0  0  0
    1.4600   -0.9115    1.1311 F   0  0  0  0  0  0  0  0  0  0  0  0
    1.3249   -1.1076   -1.0175 F   0  0  0  0  0  0  0  0  0  0  0  0
    1.3730   -0.2124   -0.0137 C   0  0  0  0  0  0  0  0  0  0  0  0
    2.3421    0.6727   -0.1515 O   0  0  0  0  0  1  0  0  0  0  0  0
   -0.0215    1.4093   -1.0801 F   0  0  0  0  0  0  0  0  0  0  0  0
  1  6  1  0  0  0  0
  1  2  1  0  0  0  0
  3  1  1  0  0  0  0
  4  1  1  0  0  0  0
  4  5  1  0  0  0  0
  8  9  1  0  0  0  0
  9  4  1  0  0  0  0
  9  7  1  0  0  0  0
 10  9  1  0  0  0  0
 11  4  1  0  0  0  0
M  END
>  <program>
Gaussian 16, Revision A.03

>  <basis>
6-311+G(2d,2p) (5D, 7F)

>  <File Format>
g03

$$$$
