/home/yang/projects/t99_calc/v1/qchem_data/combined/log_fchk/c4_sec_sec_rad_isots.log
 OpenBabel05152619573D
Gaussian 16 # opt=(calcall,ts,noeigentest,maxstep=5) uwb97xd/6-311+g(2d,2p) geom
 13 11  0  0  0  0  0  0  0  0999 V2000
    2.0012    0.0707   -0.1498 C   0  0  0  0  0  0  0  0  0  0  0  0
    2.1428    1.3203    0.2461 F   0  0  0  0  0  0  0  0  0  0  0  0
    0.5543   -0.4016   -0.0792 C   0  0  0  0  0  0  0  0  0  0  0  0
    0.4345   -1.6929   -0.1718 F   0  0  0  0  0  0  0  0  0  0  0  0
   -0.0000    0.0000    1.8202 F   0  0  0  0  0 15  0  0  0  0  0  0
   -0.5543    0.4016   -0.0792 C   0  0  0  0  0  0  0  0  0  0  0  0
   -0.4346    1.6930   -0.1719 F   0  0  0  0  0  0  0  0  0  0  0  0
    2.7617   -0.7186    0.5897 F   0  0  0  0  0  0  0  0  0  0  0  0
   -2.0012   -0.0707   -0.1498 C   0  0  0  0  0  0  0  0  0  0  0  0
    2.4120   -0.0227   -1.4214 F   0  0  0  0  0  0  0  0  0  0  0  0
   -2.4120    0.0228   -1.4214 F   0  0  0  0  0  0  0  0  0  0  0  0
   -2.1426   -1.3203    0.2460 F   0  0  0  0  0  0  0  0  0  0  0  0
   -2.7617    0.7185    0.5898 F   0  0  0  0  0  0  0  0  0  0  0  0
  1  3  1  0  0  0  0
  1  2  1  0  0  0  0
  1  8  1  0  0  0  0
  4  3  1  0  0  0  0
  6  3  2  0  0  0  0
  7  6  1  0  0  0  0
  9  6  1  0  0  0  0
  9 12  1  0  0  0  0
  9 13  1  0  0  0  0
 10  1  1  0  0  0  0
 11  9  1  0  0  0  0
M  END
>  <program>
Gaussian 16, Revision C.02

>  <basis>
6-311+G(2d,2p) (5D, 7F)

>  <File Format>
g03

$$$$
