/home/yang/projects/t99_calc/v1/qchem_data/combined/log_fchk/c4f9H_secondary.log
 OpenBabel05152619573D
Gaussian applications/g16/g16/g16 # opt freq rwb97xd/6-311+g(2d,2p) geom=connect
 14 13  0  0  1  0  0  0  0  0999 V2000
   -0.7584    1.4255   -1.2407 F   0  0  0  0  0  0  0  0  0  0  0  0
    0.7134    0.6414    0.4451 C   0  0  0  0  0  0  0  0  0  0  0  0
    0.9722   -1.6907    0.1389 F   0  0  0  0  0  0  0  0  0  0  0  0
    1.4086    1.7670    0.2024 F   0  0  0  0  0  0  0  0  0  0  0  0
    1.3816   -0.4218   -1.5638 F   0  0  0  0  0  0  0  0  0  0  0  0
    1.4724   -0.5220   -0.2444 C   0  0  0  0  0  0  0  0  0  0  0  0
    0.7318    0.4104    1.7701 F   0  0  0  0  0  0  0  0  0  0  0  0
   -1.7367   -0.2395    0.0822 C   0  0  0  0  0  0  0  0  0  0  0  0
    2.7521   -0.4772    0.1028 F   0  0  0  0  0  0  0  0  0  0  0  0
   -1.6873   -0.8484    1.2649 F   0  0  0  0  0  0  0  0  0  0  0  0
   -1.5153   -1.1341   -0.8733 F   0  0  0  0  0  0  0  0  0  0  0  0
   -2.9688    0.2441   -0.0860 F   0  0  0  0  0  0  0  0  0  0  0  0
   -0.7411    0.9262    0.0244 C   0  0  2  0  0  0  0  0  0  0  0  0
   -1.0966    1.6898    0.7196 H   0  0  0  0  0  0  0  0  0  0  0  0
  1 13  1  0  0  0  0
  2  7  1  0  0  0  0
  4  2  1  0  0  0  0
  5  6  1  0  0  0  0
  6  9  1  0  0  0  0
  6  3  1  0  0  0  0
  6  2  1  0  0  0  0
  8 10  1  0  0  0  0
 11  8  1  0  0  0  0
 12  8  1  0  0  0  0
 13  8  1  0  0  0  0
 13  2  1  0  0  0  0
 13 14  1  1  0  0  0
M  END
>  <program>
Gaussian 16, Revision A.03

>  <basis>
6-311+G(2d,2p) (5D, 7F)

>  <File Format>
g03

$$$$
