/home/yang/projects/t99_calc/v1/qchem_data/combined/log_fchk/c4f9_2_rad.log
 OpenBabel05152619573D
Gaussian applications/g16/g16/g16 # opt freq wb97xd/6-311+g(2d) geom=connectivit
 13 12  0  0  1  0  0  0  0  0999 V2000
    1.9299    0.1951   -0.0270 C   0  0  0  0  0  0  0  0  0  0  0  0
    2.8880   -0.7174    0.0306 F   0  0  0  0  0  0  0  0  0  0  0  0
    2.0584    0.8830   -1.1570 F   0  0  0  0  0  0  0  0  0  0  0  0
    2.0623    1.0203    1.0035 F   0  0  0  0  0  0  0  0  0  0  0  0
    0.5483   -0.5121    0.0120 C   0  0  0  0  0  0  0  0  0  0  0  0
    0.5372   -1.4381   -0.9660 F   0  0  0  0  0  0  0  0  0  0  0  0
    0.4646   -1.1708    1.1922 F   0  0  0  0  0  0  0  0  0  0  0  0
   -0.6098    0.4218   -0.1617 C   0  0  2  0  0  3  0  0  0  0  0  0
   -0.3989    1.7078    0.0180 F   0  0  0  0  0  0  0  0  0  0  0  0
   -2.0449    0.0047   -0.0349 C   0  0  0  0  0  0  0  0  0  0  0  0
   -2.8041    0.6868   -0.8932 F   0  0  0  0  0  0  0  0  0  0  0  0
   -2.5147    0.2492    1.1946 F   0  0  0  0  0  0  0  0  0  0  0  0
   -2.1750   -1.2939   -0.2816 F   0  0  0  0  0  0  0  0  0  0  0  0
  1  5  1  0  0  0  0
  1  2  1  0  0  0  0
  1  4  1  0  0  0  0
  3  1  1  0  0  0  0
  5  7  1  0  0  0  0
  6  5  1  0  0  0  0
  8 10  1  0  0  0  0
  8  5  1  0  0  0  0
  8  9  1  1  0  0  0
 10 12  1  0  0  0  0
 11 10  1  0  0  0  0
 13 10  1  0  0  0  0
M  END
>  <program>
Gaussian 16, Revision A.03

>  <basis>
6-311+G(2d) (5D, 7F)

>  <File Format>
g03

$$$$
