/home/yang/projects/t99_calc/v1/qchem_data/combined/log_fchk/c4f9_1_rad.log
 OpenBabel05152619573D
Gaussian applications/g16/g16/g16 # opt freq wb97xd/6-311+g(2d) geom=connectivit
 13 12  0  0  0  0  0  0  0  0999 V2000
    1.7913    0.0000   -0.0077 C   0  0  0  0  0  0  0  0  0  0  0  0
    2.5797   -1.0683   -0.0209 F   0  0  0  0  0  0  0  0  0  0  0  0
    2.0478    0.7320   -1.0827 F   0  0  0  0  0  0  0  0  0  0  0  0
    2.0584    0.7134    1.0773 F   0  0  0  0  0  0  0  0  0  0  0  0
    0.3111   -0.4758   -0.0049 C   0  0  0  0  0  0  0  0  0  0  0  0
    0.1182   -1.2091   -1.1113 F   0  0  0  0  0  0  0  0  0  0  0  0
    0.1360   -1.2571    1.0706 F   0  0  0  0  0  0  0  0  0  0  0  0
   -0.7656    0.6489    0.0291 C   0  0  0  0  0  0  0  0  0  0  0  0
   -0.5858    1.4449   -1.0366 F   0  0  0  0  0  0  0  0  0  0  0  0
   -0.6012    1.3623    1.1539 F   0  0  0  0  0  0  0  0  0  0  0  0
   -2.2001    0.1519    0.0001 C   0  0  0  0  0  3  0  0  0  0  0  0
   -2.5923   -0.5194    1.0574 F   0  0  0  0  0  0  0  0  0  0  0  0
   -2.5854   -0.4153   -1.1187 F   0  0  0  0  0  0  0  0  0  0  0  0
  1  5  1  0  0  0  0
  1  4  1  0  0  0  0
  2  1  1  0  0  0  0
  3  1  1  0  0  0  0
  5  8  1  0  0  0  0
  5  7  1  0  0  0  0
  6  5  1  0  0  0  0
  8 10  1  0  0  0  0
  9  8  1  0  0  0  0
 11  8  1  0  0  0  0
 11 12  1  0  0  0  0
 13 11  1  0  0  0  0
M  END
>  <program>
Gaussian 16, Revision A.03

>  <basis>
6-311+G(2d) (5D, 7F)

>  <File Format>
g03

$$$$
