/home/yang/projects/t99_calc/v1/qchem_data/combined/log_fchk/c5_secondary_rad.log
 OpenBabel05152619573D
Gaussian 16 # opt freq uwb97xd/6-311+g(2d,2p) geom=connectivity
 16 15  0  0  1  0  0  0  0  0999 V2000
    1.0627    0.0659   -0.5056 C   0  0  0  0  0  0  0  0  0  0  0  0
    0.6970   -0.9728   -1.2705 F   0  0  0  0  0  0  0  0  0  0  0  0
    1.1225    1.1677   -1.2693 F   0  0  0  0  0  0  0  0  0  0  0  0
   -0.0462    0.2843    0.5636 C   0  0  0  0  0  0  0  0  0  0  0  0
   -0.1429   -0.8253    1.3153 F   0  0  0  0  0  0  0  0  0  0  0  0
    0.3193    1.3144    1.3498 F   0  0  0  0  0  0  0  0  0  0  0  0
   -1.3794    0.5841   -0.0594 C   0  0  2  0  0  3  0  0  0  0  0  0
   -1.6225    1.8436   -0.3329 F   0  0  0  0  0  0  0  0  0  0  0  0
    2.4910   -0.2191    0.0334 C   0  0  0  0  0  0  0  0  0  0  0  0
    2.4976   -1.3094    0.7879 F   0  0  0  0  0  0  0  0  0  0  0  0
    2.9376    0.8052    0.7463 F   0  0  0  0  0  0  0  0  0  0  0  0
    3.3047   -0.4081   -0.9984 F   0  0  0  0  0  0  0  0  0  0  0  0
   -2.5629   -0.3367   -0.0871 C   0  0  0  0  0  0  0  0  0  0  0  0
   -3.2129   -0.3516    1.0856 F   0  0  0  0  0  0  0  0  0  0  0  0
   -3.4236    0.0669   -1.0183 F   0  0  0  0  0  0  0  0  0  0  0  0
   -2.1868   -1.5830   -0.3589 F   0  0  0  0  0  0  0  0  0  0  0  0
  1  9  1  0  0  0  0
  1  4  1  0  0  0  0
  2  1  1  0  0  0  0
  3  1  1  0  0  0  0
  4  5  1  0  0  0  0
  4  6  1  0  0  0  0
  7  8  1  1  0  0  0
  7  4  1  0  0  0  0
  9 11  1  0  0  0  0
  9 10  1  0  0  0  0
 12  9  1  0  0  0  0
 13  7  1  0  0  0  0
 13 14  1  0  0  0  0
 15 13  1  0  0  0  0
 16 13  1  0  0  0  0
M  END
>  <program>
Gaussian 16, Revision A.03

>  <basis>
6-311+G(2d,2p) (5D, 7F)

>  <File Format>
g03

$$$$
