/home/yang/projects/t99_calc/v1/qchem_data/combined/log_fchk/c5_sec_tert_rad_isots.log
 OpenBabel05152619573D
Gaussian 16 # opt=(calcall,ts,noeigentest,maxstep=5) uwb97xd/6-311+g(2d,2p) geom
 16 14  0  0  0  0  0  0  0  0999 V2000
    1.3878    0.6170   -0.1294 C   0  0  0  0  0  0  0  0  0  0  0  0
    1.4140    0.9171   -1.4272 F   0  0  0  0  0  0  0  0  0  0  0  0
   -0.0405    0.4227    0.3657 C   0  0  0  0  0  0  0  0  0  0  0  0
   -0.1778    0.5934    1.6474 F   0  0  0  0  0  0  0  0  0  0  0  0
   -1.0597    1.9786   -0.4049 F   0  0  0  0  0 15  0  0  0  0  0  0
   -1.0853   -0.0443   -0.3870 C   0  0  0  0  0  0  0  0  0  0  0  0
   -0.9021   -0.3810   -1.6291 F   0  0  0  0  0  0  0  0  0  0  0  0
    1.9507    1.6046    0.5731 F   0  0  0  0  0  0  0  0  0  0  0  0
   -2.4795   -0.3836    0.1243 C   0  0  0  0  0  0  0  0  0  0  0  0
   -2.5435   -1.7082    0.3147 F   0  0  0  0  0  0  0  0  0  0  0  0
   -2.7591    0.2179    1.2635 F   0  0  0  0  0  0  0  0  0  0  0  0
   -3.3794   -0.0525   -0.7860 F   0  0  0  0  0  0  0  0  0  0  0  0
    2.2407   -0.6668    0.0781 C   0  0  0  0  0  0  0  0  0  0  0  0
    3.4776   -0.4643   -0.3373 F   0  0  0  0  0  0  0  0  0  0  0  0
    2.2585   -0.9985    1.3645 F   0  0  0  0  0  0  0  0  0  0  0  0
    1.7053   -1.6706   -0.6132 F   0  0  0  0  0  0  0  0  0  0  0  0
  1 13  1  0  0  0  0
  1  3  1  0  0  0  0
  1  8  1  0  0  0  0
  2  1  1  0  0  0  0
  3  4  1  0  0  0  0
  6  9  1  0  0  0  0
  6  3  2  0  0  0  0
  7  6  1  0  0  0  0
  9 10  1  0  0  0  0
  9 11  1  0  0  0  0
 12  9  1  0  0  0  0
 13 15  1  0  0  0  0
 14 13  1  0  0  0  0
 16 13  1  0  0  0  0
M  END
>  <program>
Gaussian 16, Revision C.02

>  <basis>
6-311+G(2d,2p) (5D, 7F)

>  <File Format>
g03

$$$$
