/home/yang/projects/t99_calc/v1/qchem_data/combined/log_fchk/c5f11oh.log
 OpenBabel05152619573D
Gaussian 16 # opt freq wb97xd/6-311+g(2d,2p) geom=connectivity
 18 17  0  0  0  0  0  0  0  0999 V2000
    0.0039   -0.3379    0.0174 C   0  0  0  0  0  0  0  0  0  0  0  0
    0.1316   -1.1514   -1.0387 F   0  0  0  0  0  0  0  0  0  0  0  0
   -0.1364   -1.0840    1.1218 F   0  0  0  0  0  0  0  0  0  0  0  0
    1.2923    0.5309    0.1697 C   0  0  0  0  0  0  0  0  0  0  0  0
    1.2550    1.5341   -0.7200 F   0  0  0  0  0  0  0  0  0  0  0  0
    1.3058    1.0449    1.4045 F   0  0  0  0  0  0  0  0  0  0  0  0
   -1.2879    0.5141   -0.1848 C   0  0  0  0  0  0  0  0  0  0  0  0
   -2.6100   -0.2693    0.0687 C   0  0  0  0  0  0  0  0  0  0  0  0
   -1.3170    0.9597   -1.4455 F   0  0  0  0  0  0  0  0  0  0  0  0
   -1.2758    1.5616    0.6511 F   0  0  0  0  0  0  0  0  0  0  0  0
   -2.7682   -0.5261    1.3586 F   0  0  0  0  0  0  0  0  0  0  0  0
   -2.6133   -1.4123   -0.6068 F   0  0  0  0  0  0  0  0  0  0  0  0
    2.6189   -0.2525   -0.0518 C   0  0  0  0  0  0  0  0  0  0  0  0
    2.5725   -1.4168    0.6338 F   0  0  0  0  0  0  0  0  0  0  0  0
    2.7368   -0.5852   -1.3536 F   0  0  0  0  0  0  0  0  0  0  0  0
    3.6344    0.5250    0.3503 O   0  0  0  0  0  0  0  0  0  0  0  0
    4.4685    0.1021    0.1260 H   0  0  0  0  0  0  0  0  0  0  0  0
   -3.6295    0.4739   -0.3433 F   0  0  0  0  0  0  0  0  0  0  0  0
  1  4  1  0  0  0  0
  1  3  1  0  0  0  0
  2  1  1  0  0  0  0
  4  6  1  0  0  0  0
  5  4  1  0  0  0  0
  7  1  1  0  0  0  0
  7  8  1  0  0  0  0
  7 10  1  0  0  0  0
  8 11  1  0  0  0  0
  9  7  1  0  0  0  0
 12  8  1  0  0  0  0
 13  4  1  0  0  0  0
 13 16  1  0  0  0  0
 13 14  1  0  0  0  0
 15 13  1  0  0  0  0
 17 16  1  0  0  0  0
 18  8  1  0  0  0  0
M  END
>  <program>
Gaussian 16, Revision A.03

>  <basis>
6-311+G(2d,2p) (5D, 7F)

>  <File Format>
g03

$$$$
