/home/yang/projects/t99_calc/v1/qchem_data/combined/log_fchk/c6_rad.log
 OpenBabel05152619573D
Gaussian 16 # opt freq uwb97xd/6-311+g(2d,2p) geom=connectivity integral=grid=su
 19 18  0  0  0  0  0  0  0  0999 V2000
   -0.9165   -0.3231    0.0507 C   0  0  0  0  0  0  0  0  0  0  0  0
   -1.0675   -0.7377    1.3175 F   0  0  0  0  0  0  0  0  0  0  0  0
   -0.9149   -1.3935   -0.7559 F   0  0  0  0  0  0  0  0  0  0  0  0
   -2.1528    0.5578   -0.3211 C   0  0  0  0  0  0  0  0  0  0  0  0
   -2.0207    1.7580    0.2655 F   0  0  0  0  0  0  0  0  0  0  0  0
   -2.1807    0.7093   -1.6532 F   0  0  0  0  0  0  0  0  0  0  0  0
   -3.4865   -0.0264    0.1098 C   0  0  0  0  0  3  0  0  0  0  0  0
   -3.7537    0.0357    1.3921 F   0  0  0  0  0  0  0  0  0  0  0  0
   -3.7787   -1.2001   -0.4025 F   0  0  0  0  0  0  0  0  0  0  0  0
    0.4537    0.4170   -0.0660 C   0  0  0  0  0  0  0  0  0  0  0  0
    1.6725   -0.5554   -0.1283 C   0  0  0  0  0  0  0  0  0  0  0  0
    0.5907    1.2204    0.9971 F   0  0  0  0  0  0  0  0  0  0  0  0
    0.4577    1.1640   -1.1772 F   0  0  0  0  0  0  0  0  0  0  0  0
    1.5104   -1.5360    0.7711 F   0  0  0  0  0  0  0  0  0  0  0  0
    1.7352   -1.0886   -1.3528 F   0  0  0  0  0  0  0  0  0  0  0  0
    3.0429    0.1251    0.1627 C   0  0  0  0  0  0  0  0  0  0  0  0
    3.1923    1.2112   -0.5859 F   0  0  0  0  0  0  0  0  0  0  0  0
    3.1420    0.4598    1.4404 F   0  0  0  0  0  0  0  0  0  0  0  0
    4.0125   -0.7325   -0.1280 F   0  0  0  0  0  0  0  0  0  0  0  0
  1  2  1  0  0  0  0
  3  1  1  0  0  0  0
  4  1  1  0  0  0  0
  4  7  1  0  0  0  0
  4  5  1  0  0  0  0
  6  4  1  0  0  0  0
  7  8  1  0  0  0  0
  9  7  1  0  0  0  0
 10  1  1  0  0  0  0
 10 12  1  0  0  0  0
 11 10  1  0  0  0  0
 11 16  1  0  0  0  0
 11 14  1  0  0  0  0
 13 10  1  0  0  0  0
 15 11  1  0  0  0  0
 16 18  1  0  0  0  0
 17 16  1  0  0  0  0
 19 16  1  0  0  0  0
M  END
>  <program>
Gaussian 16, Revision A.03

>  <basis>
6-311+G(2d,2p) (5D, 7F)

>  <File Format>
g03

$$$$
