Title Card Required
 OpenBabel05152619573D

 12 12  0  0  0  0  0  0  0  0999 V2000
    0.0000   -1.1048   -0.0670 C   0  0  0  0  0  0  0  0  0  0  0  0
    0.0000   -1.6781   -1.2697 F   0  0  0  0  0  0  0  0  0  0  0  0
    0.0000   -2.0309    0.8824 F   0  0  0  0  0  0  0  0  0  0  0  0
   -1.1048    0.0000    0.0670 C   0  0  0  0  0  0  0  0  0  0  0  0
   -2.0309    0.0000   -0.8824 F   0  0  0  0  0  0  0  0  0  0  0  0
   -1.6781    0.0000    1.2697 F   0  0  0  0  0  0  0  0  0  0  0  0
   -0.0000    1.1048   -0.0670 C   0  0  0  0  0  0  0  0  0  0  0  0
   -0.0000    2.0309    0.8824 F   0  0  0  0  0  0  0  0  0  0  0  0
   -0.0000    1.6781   -1.2697 F   0  0  0  0  0  0  0  0  0  0  0  0
    1.1048   -0.0000    0.0670 C   0  0  0  0  0  0  0  0  0  0  0  0
    2.0309   -0.0000   -0.8824 F   0  0  0  0  0  0  0  0  0  0  0  0
    1.6781   -0.0000    1.2697 F   0  0  0  0  0  0  0  0  0  0  0  0
  1  2  1  0  0  0  0
  1  3  1  0  0  0  0
  1  4  1  0  0  0  0
  1 10  1  0  0  0  0
  4  5  1  0  0  0  0
  4  6  1  0  0  0  0
  4  7  1  0  0  0  0
  7  8  1  0  0  0  0
  7  9  1  0  0  0  0
  7 10  1  0  0  0  0
 10 11  1  0  0  0  0
 10 12  1  0  0  0  0
M  END
$$$$
