Title Card Required
 OpenBabel05152619573D

  3  2  0  0  0  0  0  0  0  0999 V2000
    0.0000    0.5947    0.0000 C   0  0  0  0  0  2  0  0  0  0  0  0
    1.0275   -0.1982    0.0000 F   0  0  0  0  0  0  0  0  0  0  0  0
   -1.0275   -0.1982    0.0000 F   0  0  0  0  0  0  0  0  0  0  0  0
  1  2  1  0  0  0  0
  1  3  1  0  0  0  0
M  END
$$$$
