/home/yang/projects/t99_calc/v1/qchem_data/combined/log_fchk/cf2_tfa_prod.log
 OpenBabel05152619573D
Gaussian applications/g16/g16/g16 # opt freq wb97xd/6-311+g(2d,2p) geom=connecti
 11 10  0  0  0  0  0  0  0  0999 V2000
   -2.0277    0.0653   -0.2129 C   0  0  0  0  0  0  0  0  0  0  0  0
   -2.0883    0.7631   -1.0445 H   0  0  0  0  0  0  0  0  0  0  0  0
   -2.4827    0.6431    0.9033 F   0  0  0  0  0  0  0  0  0  0  0  0
   -2.7479   -1.0277   -0.4501 F   0  0  0  0  0  0  0  0  0  0  0  0
    1.6251   -0.1597    0.0639 C   0  0  0  0  0  0  0  0  0  0  0  0
    2.6022    0.6983   -0.1633 F   0  0  0  0  0  0  0  0  0  0  0  0
    1.6825   -0.5550    1.3336 F   0  0  0  0  0  0  0  0  0  0  0  0
    0.2595    0.5056   -0.2293 C   0  0  0  0  0  0  0  0  0  0  0  0
    0.1348    1.6213   -0.6139 O   0  0  0  0  0  0  0  0  0  0  0  0
   -0.7205   -0.3768    0.0117 O   0  0  0  0  0  0  0  0  0  0  0  0
    1.7939   -1.2239   -0.7200 F   0  0  0  0  0  0  0  0  0  0  0  0
  1 10  1  0  0  0  0
  1  3  1  0  0  0  0
  2  1  1  0  0  0  0
  4  1  1  0  0  0  0
  5  7  1  0  0  0  0
  6  5  1  0  0  0  0
  8 10  1  0  0  0  0
  8  5  1  0  0  0  0
  9  8  2  0  0  0  0
 11  5  1  0  0  0  0
M  END
>  <program>
Gaussian 16, Revision A.03

>  <basis>
6-311+G(2d,2p) (5D, 7F)

>  <File Format>
g03

$$$$
