/home/yang/projects/t99_calc/v1/qchem_data/combined/log_fchk/cf2_2h2o.log
 OpenBabel05152619573D
Gaussian applications/g16/g16/g16 # opt freq wb97xd/6-311+g(2d,2p) geom=connecti
  9  6  0  0  0  0  0  0  0  0999 V2000
   -0.7733   -0.5459   -0.0309 C   0  0  0  0  0  2  0  0  0  0  0  0
   -1.4351   -0.2213    1.0293 F   0  0  0  0  0  0  0  0  0  0  0  0
   -1.4650   -0.0908   -1.0264 F   0  0  0  0  0  0  0  0  0  0  0  0
    0.8330    1.5581    0.1594 O   0  0  0  0  0  0  0  0  0  0  0  0
    0.9377    2.1621   -0.5750 H   0  0  0  0  0  0  0  0  0  0  0  0
    1.5531    0.9160    0.0762 H   0  0  0  0  0  0  0  0  0  0  0  0
    2.2097   -0.8758   -0.1381 O   0  0  0  0  0  0  0  0  0  0  0  0
    1.2725   -1.1194   -0.0984 H   0  0  0  0  0  0  0  0  0  0  0  0
    2.6359   -1.3333    0.5857 H   0  0  0  0  0  0  0  0  0  0  0  0
  1  2  1  0  0  0  0
  3  1  1  0  0  0  0
  5  4  1  0  0  0  0
  6  4  1  0  0  0  0
  7  8  1  0  0  0  0
  7  9  1  0  0  0  0
M  END
>  <program>
Gaussian 16, Revision A.03

>  <basis>
6-311+G(2d,2p) (5D, 7F)

>  <File Format>
g03

$$$$
