/home/yang/projects/t99_calc/v1/qchem_data/combined/log_fchk/cf2coho.log
 OpenBabel05152619573D
Gaussian applications/g16/g16/g16 # opt uwb97xd/6-311+g(2d,2p) geom=connectivity
  7  6  0  0  0  0  0  0  0  0999 V2000
    0.6613   -0.0150   -0.0001 C   0  0  0  0  0  3  0  0  0  0  0  0
    1.2719   -1.1652    0.0001 F   0  0  0  0  0  0  0  0  0  0  0  0
    1.4636    1.0046   -0.0000 F   0  0  0  0  0  0  0  0  0  0  0  0
   -0.7634    0.1458   -0.0001 C   0  0  0  0  0  0  0  0  0  0  0  0
   -1.3047    1.2262    0.0001 O   0  0  0  0  0  0  0  0  0  0  0  0
   -1.4029   -1.0385   -0.0001 O   0  0  0  0  0  0  0  0  0  0  0  0
   -2.3456   -0.8423    0.0005 H   0  0  0  0  0  0  0  0  0  0  0  0
  1  4  1  0  0  0  0
  1  3  1  0  0  0  0
  1  2  1  0  0  0  0
  4  5  2  0  0  0  0
  6  4  1  0  0  0  0
  6  7  1  0  0  0  0
M  END
>  <program>
Gaussian 16, Revision A.03

>  <basis>
6-311+G(2d,2p) (5D, 7F)

>  <File Format>
g03

$$$$
