/home/yang/projects/t99_calc/v1/qchem_data/combined/log_fchk/cf2hcf2.log
 OpenBabel05152619573D
Gaussian applications/g16/g16/g16 # opt freq uwb97xd/6-311+g(2d) geom=connectivi
  7  6  0  0  0  0  0  0  0  0999 V2000
    0.6985   -0.0002   -0.2578 C   0  0  0  0  0  3  0  0  0  0  0  0
    1.3901    1.0888    0.0204 F   0  0  0  0  0  0  0  0  0  0  0  0
    1.3900   -1.0889    0.0217 F   0  0  0  0  0  0  0  0  0  0  0  0
   -0.7015   -0.0001    0.3148 C   0  0  0  0  0  0  0  0  0  0  0  0
   -1.3500   -1.0980   -0.1192 F   0  0  0  0  0  0  0  0  0  0  0  0
   -1.3494    1.0985   -0.1177 F   0  0  0  0  0  0  0  0  0  0  0  0
   -0.7077   -0.0011    1.4112 H   0  0  0  0  0  0  0  0  0  0  0  0
  1  2  1  0  0  0  0
  1  3  1  0  0  0  0
  1  4  1  0  0  0  0
  4  7  1  0  0  0  0
  5  4  1  0  0  0  0
  6  4  1  0  0  0  0
M  END
>  <program>
Gaussian 16, Revision A.03

>  <basis>
6-311+G(2d) (5D, 7F)

>  <File Format>
g03

$$$$
