/home/yang/projects/t99_calc/v1/qchem_data/combined/log_fchk/cf2o_2h2oreact.log
 OpenBabel05152619573D
Gaussian applications/g16/g16/g16 # opt freq wb97xd/6-311+g(2d,2p) geom=connecti
 10  7  0  0  0  0  0  0  0  0999 V2000
   -0.9640   -0.4078   -0.0109 C   0  0  0  0  0  0  0  0  0  0  0  0
   -1.3082    0.0121    1.1772 F   0  0  0  0  0  0  0  0  0  0  0  0
   -1.7139    0.1816   -0.8965 F   0  0  0  0  0  0  0  0  0  0  0  0
   -0.1710   -1.2454   -0.2339 O   0  0  0  0  0  0  0  0  0  0  0  0
    0.7315    1.5936   -0.1631 O   0  0  0  0  0  0  0  0  0  0  0  0
    0.7835    2.2736    0.5069 H   0  0  0  0  0  0  0  0  0  0  0  0
    1.5327    1.0578   -0.0614 H   0  0  0  0  0  0  0  0  0  0  0  0
    2.6384   -0.4593    0.1065 O   0  0  0  0  0  0  0  0  0  0  0  0
    3.1799   -0.6677   -0.6546 H   0  0  0  0  0  0  0  0  0  0  0  0
    1.8963   -1.0710    0.0718 H   0  0  0  0  0  0  0  0  0  0  0  0
  1  2  1  0  0  0  0
  3  1  1  0  0  0  0
  4  1  2  0  0  0  0
  5  7  1  0  0  0  0
  5  6  1  0  0  0  0
  9  8  1  0  0  0  0
 10  8  1  0  0  0  0
M  END
>  <program>
Gaussian 16, Revision A.03

>  <basis>
6-311+G(2d,2p) (5D, 7F)

>  <File Format>
g03

$$$$
