/home/yang/projects/t99_calc/v1/qchem_data/combined/log_fchk/cf2o2_rad.log
 OpenBabel05152619573D
Gaussian applications/g16/g16/g16 #p scf=xqc uwb97xd/6-311+g(2d) freq=anharm
  5  4  0  0  0  0  0  0  0  0999 V2000
    0.0000    0.3830    0.0000 C   0  0  0  0  0  3  0  0  0  0  0  0
   -0.7463   -0.5821    0.0000 O   0  0  0  0  0  0  0  0  0  0  0  0
   -0.1341   -1.8499    0.0000 O   0  0  0  0  0  1  0  0  0  0  0  0
   -0.4866    1.5724    0.0000 F   0  0  0  0  0  0  0  0  0  0  0  0
    1.2692    0.3341    0.0000 F   0  0  0  0  0  0  0  0  0  0  0  0
  1  2  1  0  0  0  0
  1  4  1  0  0  0  0
  1  5  1  0  0  0  0
  2  3  1  0  0  0  0
M  END
>  <program>
Gaussian 16, Revision A.03

>  <basis>
6-311+G(2d) (5D, 7F)

>  <File Format>
g03

$$$$
