/home/yang/projects/t99_calc/v1/qchem_data/combined/log_fchk/cf2oh2.log
 OpenBabel05152619573D
Gaussian applications/g16/g16/g16 # opt wb97xd/6-311+g(2d,2p) geom=connectivity 
  7  6  0  0  0  0  0  0  0  0999 V2000
   -0.0000   -0.0018    0.0001 C   0  0  0  0  0  0  0  0  0  0  0  0
   -0.2017   -0.7936    1.0663 F   0  0  0  0  0  0  0  0  0  0  0  0
    0.2021   -0.7956   -1.0649 F   0  0  0  0  0  0  0  0  0  0  0  0
    1.1096    0.7325    0.2851 O   0  0  0  0  0  0  0  0  0  0  0  0
    1.2933    1.3020   -0.4655 H   0  0  0  0  0  0  0  0  0  0  0  0
   -1.1101    0.7313   -0.2864 O   0  0  0  0  0  0  0  0  0  0  0  0
   -1.2943    1.3018    0.4633 H   0  0  0  0  0  0  0  0  0  0  0  0
  1  4  1  0  0  0  0
  1  2  1  0  0  0  0
  3  1  1  0  0  0  0
  5  4  1  0  0  0  0
  6  1  1  0  0  0  0
  6  7  1  0  0  0  0
M  END
>  <program>
Gaussian 16, Revision A.03

>  <basis>
6-311+G(2d,2p) (5D, 7F)

>  <File Format>
g03

$$$$
