/home/yang/projects/t99_calc/v1/qchem_data/combined/log_fchk/cf2o_h2o.log
 OpenBabel05152619573D
Gaussian applications/g16/g16/g16 # opt wb97xd/6-311+g(2d,2p) geom=connectivity 
  7  5  0  0  0  0  0  0  0  0999 V2000
   -0.6408    0.1342   -0.0475 C   0  0  0  0  0  0  0  0  0  0  0  0
   -0.6131   -0.8757   -0.8837 F   0  0  0  0  0  0  0  0  0  0  0  0
   -0.7231   -0.3448    1.1659 F   0  0  0  0  0  0  0  0  0  0  0  0
   -0.6485    1.2662   -0.3434 O   0  0  0  0  0  0  0  0  0  0  0  0
    2.0373   -0.0327    0.1347 O   0  0  0  0  0  0  0  0  0  0  0  0
    2.5185   -0.5649   -0.4985 H   0  0  0  0  0  0  0  0  0  0  0  0
    2.2413    0.8764   -0.0864 H   0  0  0  0  0  0  0  0  0  0  0  0
  1  3  1  0  0  0  0
  2  1  1  0  0  0  0
  4  1  2  0  0  0  0
  6  5  1  0  0  0  0
  7  5  1  0  0  0  0
M  END
>  <program>
Gaussian 16, Revision A.03

>  <basis>
6-311+G(2d,2p) (5D, 7F)

>  <File Format>
g03

$$$$
