/home/yang/projects/t99_calc/v1/qchem_data/combined/log_fchk/cf2o_2h2oprod.log
 OpenBabel05152619573D
Gaussian 16 # opt freq wb97xd/6-311+g(2d,2p) geom=connectivity scf=xqc
 10  8  0  0  0  0  0  0  0  0999 V2000
   -0.6164   -0.0483   -0.0245 C   0  0  0  0  0  0  0  0  0  0  0  0
   -0.9748    0.2186    1.2706 F   0  0  0  0  0  0  0  0  0  0  0  0
   -1.7796   -0.2848   -0.6620 F   0  0  0  0  0  0  0  0  0  0  0  0
    0.1545   -1.1249   -0.1211 O   0  0  0  0  0  0  0  0  0  0  0  0
   -0.0037    1.0667   -0.5375 O   0  0  0  0  0  0  0  0  0  0  0  0
   -0.5489    1.8307   -0.3348 H   0  0  0  0  0  0  0  0  0  0  0  0
    2.2881    0.8065   -0.2325 H   0  0  0  0  0  0  0  0  0  0  0  0
    2.6420   -0.0146    0.1196 O   0  0  0  0  0  0  0  0  0  0  0  0
    3.3216   -0.2963   -0.4933 H   0  0  0  0  0  0  0  0  0  0  0  0
    1.0847   -0.8731    0.0431 H   0  0  0  0  0  0  0  0  0  0  0  0
  1  2  1  0  0  0  0
  3  1  1  0  0  0  0
  4  1  1  0  0  0  0
  4 10  1  0  0  0  0
  5  6  1  0  0  0  0
  5  1  1  0  0  0  0
  7  8  1  0  0  0  0
  9  8  1  0  0  0  0
M  END
>  <program>
Gaussian 16, Revision A.03

>  <basis>
6-311+G(2d,2p) (5D, 7F)

>  <File Format>
g03

$$$$
