Title Card Required
 OpenBabel05152619573D

  4  3  0  0  0  0  0  0  0  0999 V2000
    0.0000    1.2540   -0.0720 F   0  0  0  0  0  0  0  0  0  0  0  0
    1.0860   -0.6270   -0.0720 F   0  0  0  0  0  0  0  0  0  0  0  0
    0.0000   -0.0000    0.3242 C   0  0  0  0  0  3  0  0  0  0  0  0
   -1.0860   -0.6270   -0.0720 F   0  0  0  0  0  0  0  0  0  0  0  0
  1  3  1  0  0  0  0
  2  3  1  0  0  0  0
  3  4  1  0  0  0  0
M  END
$$$$
