/home/yang/projects/t99_calc/v1/qchem_data/combined/log_fchk/cf3cfoh_cis.log
 OpenBabel05152619573D
Gaussian applications/g16/g16/g16 # opt freq uwb97xd/6-311+g(2d,2p) geom=connect
  8  7  0  0  1  0  0  0  0  0999 V2000
   -0.8610    0.0095   -0.3377 C   0  0  1  0  0  3  0  0  0  0  0  0
   -1.4479    1.1632    0.0092 F   0  0  0  0  0  0  0  0  0  0  0  0
    0.6136   -0.0189   -0.0228 C   0  0  0  0  0  0  0  0  0  0  0  0
    1.2096    1.0531   -0.5407 F   0  0  0  0  0  0  0  0  0  0  0  0
    0.8544   -0.0179    1.2977 F   0  0  0  0  0  0  0  0  0  0  0  0
    1.1701   -1.1130   -0.5364 F   0  0  0  0  0  0  0  0  0  0  0  0
   -2.4515   -1.0001   -0.1726 H   0  0  0  0  0  0  0  0  0  0  0  0
   -1.5174   -1.0890    0.0335 O   0  0  0  0  0  0  0  0  0  0  0  0
  1  3  1  0  0  0  0
  1  2  1  1  0  0  0
  1  8  1  0  0  0  0
  3  5  1  0  0  0  0
  4  3  1  0  0  0  0
  6  3  1  0  0  0  0
  7  8  1  0  0  0  0
M  END
>  <program>
Gaussian 16, Revision A.03

>  <basis>
6-311+G(2d,2p) (5D, 7F)

>  <File Format>
g03

$$$$
