/home/yang/projects/t99_calc/v1/qchem_data/combined/log_fchk/cf3cf2chf.log
 OpenBabel05152619573D
Gaussian applications/g16/g16/g16 # opt freq uwb97xd/6-311+g(2d) geom=connectivi
 10  9  0  0  0  0  0  0  0  0999 V2000
    1.5932    0.0001    0.6009 C   0  0  0  0  0  3  0  0  0  0  0  0
    2.1820   -0.9768   -0.0640 F   0  0  0  0  0  0  0  0  0  0  0  0
    0.3723    0.5855   -0.0148 C   0  0  0  0  0  0  0  0  0  0  0  0
    0.5906    0.9029   -1.3079 F   0  0  0  0  0  0  0  0  0  0  0  0
    0.0604    1.7066    0.6697 F   0  0  0  0  0  0  0  0  0  0  0  0
    1.7786    0.0388    1.6651 H   0  0  0  0  0  0  0  0  0  0  0  0
   -0.8828   -0.3281    0.0191 C   0  0  0  0  0  0  0  0  0  0  0  0
   -1.1600   -0.6566    1.2815 F   0  0  0  0  0  0  0  0  0  0  0  0
   -0.6581   -1.4428   -0.6687 F   0  0  0  0  0  0  0  0  0  0  0  0
   -1.9343    0.2907   -0.4992 F   0  0  0  0  0  0  0  0  0  0  0  0
  1  6  1  0  0  0  0
  2  1  1  0  0  0  0
  3  7  1  0  0  0  0
  3  1  1  0  0  0  0
  3  5  1  0  0  0  0
  4  3  1  0  0  0  0
  7  8  1  0  0  0  0
  9  7  1  0  0  0  0
 10  7  1  0  0  0  0
M  END
>  <program>
Gaussian 16, Revision A.03

>  <basis>
6-311+G(2d) (5D, 7F)

>  <File Format>
g03

$$$$
