/home/yang/projects/t99_calc/v1/qchem_data/combined/log_fchk/cf3chf.log
 OpenBabel05152619573D
Gaussian applications/g16/g16/g16 # opt freq uwb97xd/6-311+g(2d) geom=connectivi
  7  6  0  0  0  0  0  0  0  0999 V2000
    0.9350    0.6846   -0.1409 C   0  0  0  0  0  3  0  0  0  0  0  0
    1.9875   -0.1003    0.0014 F   0  0  0  0  0  0  0  0  0  0  0  0
   -0.3882    0.0201   -0.0134 C   0  0  0  0  0  0  0  0  0  0  0  0
   -0.6075   -0.4635    1.2232 F   0  0  0  0  0  0  0  0  0  0  0  0
   -0.5139   -1.0081   -0.8568 F   0  0  0  0  0  0  0  0  0  0  0  0
   -1.3502    0.9100   -0.2759 F   0  0  0  0  0  0  0  0  0  0  0  0
    1.0771    1.7291    0.0985 H   0  0  0  0  0  0  0  0  0  0  0  0
  1  3  1  0  0  0  0
  1  2  1  0  0  0  0
  1  7  1  0  0  0  0
  3  4  1  0  0  0  0
  5  3  1  0  0  0  0
  6  3  1  0  0  0  0
M  END
>  <program>
Gaussian 16, Revision A.03

>  <basis>
6-311+G(2d) (5D, 7F)

>  <File Format>
g03

$$$$
