/home/yang/projects/t99_calc/v1/qchem_data/combined/log_fchk/cf3h.log
 OpenBabel05152619573D
Gaussian applications/g16/g16/g16 # freq wb97xd/6-311+g(2d,2p) geom=connectivity
  5  4  0  0  0  0  0  0  0  0999 V2000
    0.0000   -0.0000    0.3388 C   0  0  0  0  0  0  0  0  0  0  0  0
    0.0000   -0.0000    1.4273 H   0  0  0  0  0  0  0  0  0  0  0  0
    0.0000    1.2492   -0.1282 F   0  0  0  0  0  0  0  0  0  0  0  0
    1.0818   -0.6246   -0.1282 F   0  0  0  0  0  0  0  0  0  0  0  0
   -1.0818   -0.6246   -0.1282 F   0  0  0  0  0  0  0  0  0  0  0  0
  1  2  1  0  0  0  0
  3  1  1  0  0  0  0
  4  1  1  0  0  0  0
  5  1  1  0  0  0  0
M  END
>  <program>
Gaussian 16, Revision A.03

>  <basis>
6-311+G(2d,2p) (5D, 7F)

>  <File Format>
g03

$$$$
