/home/yang/projects/t99_calc/v1/qchem_data/combined/log_fchk/cf3oh.log
 OpenBabel05152619573D
Gaussian applications/g16/g16/g16 # freq wb97xd/6-311+g(2d,2p) geom=connectivity
  6  5  0  0  0  0  0  0  0  0999 V2000
   -0.0069    0.0226    0.0000 C   0  0  0  0  0  0  0  0  0  0  0  0
    0.7849    1.0801   -0.0001 F   0  0  0  0  0  0  0  0  0  0  0  0
    0.2824   -0.7265    1.0746 F   0  0  0  0  0  0  0  0  0  0  0  0
    0.2823   -0.7266   -1.0745 F   0  0  0  0  0  0  0  0  0  0  0  0
   -1.2798    0.4424    0.0001 O   0  0  0  0  0  0  0  0  0  0  0  0
   -1.8665   -0.3178    0.0001 H   0  0  0  0  0  0  0  0  0  0  0  0
  1  5  1  0  0  0  0
  1  3  1  0  0  0  0
  2  1  1  0  0  0  0
  4  1  1  0  0  0  0
  5  6  1  0  0  0  0
M  END
>  <program>
Gaussian 16, Revision A.03

>  <basis>
6-311+G(2d,2p) (5D, 7F)

>  <File Format>
g03

$$$$
