/home/yang/projects/t99_calc/v1/qchem_data/combined/log_fchk/cf3o.log
 OpenBabel05152619573D
Gaussian applications/g16/g16/g16 # opt freq uwb97xd/6-311+g(2d,2p) geom=connect
  5  4  0  0  0  0  0  0  0  0999 V2000
    0.0056   -0.0001    0.0380 C   0  0  0  0  0  0  0  0  0  0  0  0
    0.8657    0.0108   -0.9757 F   0  0  0  0  0  0  0  0  0  0  0  0
   -0.7707   -1.0737   -0.0463 F   0  0  0  0  0  0  0  0  0  0  0  0
   -0.7786    1.0690   -0.0301 F   0  0  0  0  0  0  0  0  0  0  0  0
    0.7649   -0.0068    1.1551 O   0  0  0  0  0  1  0  0  0  0  0  0
  1  5  1  0  0  0  0
  2  1  1  0  0  0  0
  3  1  1  0  0  0  0
  4  1  1  0  0  0  0
M  END
>  <program>
Gaussian 16, Revision A.03

>  <basis>
6-311+G(2d,2p) (5D, 7F)

>  <File Format>
g03

$$$$
