/home/yang/projects/t99_calc/v1/qchem_data/combined/log_fchk/cf3o_cf2o_prod.log
 OpenBabel05152619573D
Gaussian 16 # opt freq wb97xd/6-311+g(2d,2p) geom=connectivity scf=xqc
  9  8  0  0  0  0  0  0  0  0999 V2000
   -2.1575   -0.5412    0.8376 F   0  0  0  0  0  0  0  0  0  0  0  0
   -1.2190   -0.0589    0.0280 C   0  0  0  0  0  0  0  0  0  0  0  0
   -1.4870    1.2361   -0.1632 F   0  0  0  0  0  0  0  0  0  0  0  0
   -1.1825   -0.6648   -1.1738 O   0  0  0  0  0  1  0  0  0  0  0  0
    1.1751   -0.0137    0.0749 C   0  0  0  0  0  0  0  0  0  0  0  0
    1.5021   -0.9908   -0.7585 F   0  0  0  0  0  0  0  0  0  0  0  0
    1.1726    1.1267   -0.5952 F   0  0  0  0  0  0  0  0  0  0  0  0
    2.0747    0.0458    1.0359 F   0  0  0  0  0  0  0  0  0  0  0  0
   -0.0276   -0.2671    0.6954 O   0  0  0  0  0  0  0  0  0  0  0  0
  2  9  1  0  0  0  0
  2  1  1  0  0  0  0
  3  2  1  0  0  0  0
  4  2  1  0  0  0  0
  5  9  1  0  0  0  0
  5  8  1  0  0  0  0
  6  5  1  0  0  0  0
  7  5  1  0  0  0  0
M  END
>  <program>
Gaussian 16, Revision A.03

>  <basis>
6-311+G(2d,2p) (5D, 7F)

>  <File Format>
g03

$$$$
