/home/yang/projects/t99_calc/v1/qchem_data/combined/log_fchk/cfho.log
 OpenBabel05152619573D
Gaussian applications/g16/g16/g16 # opt freq wb97xd/6-311+g(2d,2p) geom=connecti
  4  3  0  0  0  0  0  0  0  0999 V2000
   -0.0000    0.3976    0.0000 C   0  0  0  0  0  0  0  0  0  0  0  0
   -0.9645   -0.5331    0.0000 F   0  0  0  0  0  0  0  0  0  0  0  0
    1.1419    0.1276    0.0000 O   0  0  0  0  0  0  0  0  0  0  0  0
   -0.4552    1.3921    0.0000 H   0  0  0  0  0  0  0  0  0  0  0  0
  1  2  1  0  0  0  0
  1  3  2  0  0  0  0
  1  4  1  0  0  0  0
M  END
>  <program>
Gaussian 16, Revision A.03

>  <basis>
6-311+G(2d,2p) (5D, 7F)

>  <File Format>
g03

$$$$
