Title Card Required
 OpenBabel05152619573D

  3  2  0  0  0  0  0  0  0  0999 V2000
    0.0000    0.4203    0.0000 C   0  0  0  0  0  3  0  0  0  0  0  0
   -1.0104   -0.4368    0.0000 F   0  0  0  0  0  0  0  0  0  0  0  0
    1.1367    0.1762    0.0000 O   0  0  0  0  0  0  0  0  0  0  0  0
  1  2  1  0  0  0  0
  1  3  2  0  0  0  0
M  END
$$$$
