Title Card Required
 OpenBabel05152619573D

  4  3  0  0  0  0  0  0  0  0999 V2000
    0.0249    0.6534   -0.0000 C   0  0  0  0  0  3  0  0  0  0  0  0
    0.0249   -0.6815    0.0000 F   0  0  0  0  0  0  0  0  0  0  0  0
   -0.1866    1.1065    0.9569 H   0  0  0  0  0  0  0  0  0  0  0  0
   -0.1866    1.1065   -0.9569 H   0  0  0  0  0  0  0  0  0  0  0  0
  1  2  1  0  0  0  0
  1  3  1  0  0  0  0
  1  4  1  0  0  0  0
M  END
$$$$
