/home/yang/projects/t99_calc/v1/qchem_data/combined/log_fchk/ch3.log
 OpenBabel05152619573D
Gaussian applications/g16/g16/g16 # opt freq wb97xd/6-311+g(2d,2p) geom=connecti
  4  3  0  0  0  0  0  0  0  0999 V2000
   -0.0001    0.0000    0.0001 C   0  0  0  0  0  3  0  0  0  0  0  0
    0.5391   -0.9338   -0.0002 H   0  0  0  0  0  0  0  0  0  0  0  0
    0.5397    0.9335   -0.0002 H   0  0  0  0  0  0  0  0  0  0  0  0
   -1.0784    0.0003   -0.0002 H   0  0  0  0  0  0  0  0  0  0  0  0
  2  1  1  0  0  0  0
  3  1  1  0  0  0  0
  4  1  1  0  0  0  0
M  END
>  <program>
Gaussian 16, Revision A.03

>  <basis>
6-311+G(2d,2p) (5D, 7F)

>  <File Format>
g03

$$$$
