Title Card Required
 OpenBabel05152619573D

  3  2  0  0  0  0  0  0  0  0999 V2000
    0.0000    0.0003    0.0000 C   0  0  0  0  0  0  0  0  0  0  0  0
    1.1488   -0.1196    0.0000 O   0  0  0  0  0  0  0  0  0  0  0  0
   -1.1488    0.1194    0.0000 O   0  0  0  0  0  0  0  0  0  0  0  0
  1  2  2  0  0  0  0
  1  3  2  0  0  0  0
M  END
$$$$
