/home/yang/projects/t99_calc/v1/qchem_data/combined/log_fchk/co2h.log
 OpenBabel05152619573D
Gaussian applications/g16/g16/g16 # opt freq uwb97xd/6-311+g(2d,2p) geom=connect
  4  3  0  0  0  0  0  0  0  0999 V2000
    0.1332   -0.4205   -0.0000 C   0  0  0  0  0  3  0  0  0  0  0  0
    1.1513    0.1735    0.0000 O   0  0  0  0  0  0  0  0  0  0  0  0
   -1.1122    0.0183    0.0000 O   0  0  0  0  0  0  0  0  0  0  0  0
   -1.1121    0.9886    0.0000 H   0  0  0  0  0  0  0  0  0  0  0  0
  1  2  2  0  0  0  0
  1  3  1  0  0  0  0
  3  4  1  0  0  0  0
M  END
>  <program>
Gaussian 16, Revision A.03

>  <basis>
6-311+G(2d,2p) (5D, 7F)

>  <File Format>
g03

$$$$
