/home/yang/projects/t99_calc/v1/qchem_data/combined/log_fchk/cof.log
 OpenBabel05152619573D
Gaussian applications/g16/g16/g16 # opt freq uwb97xd/6-311+g(2d) geom=connectivi
  3  2  0  0  0  0  0  0  0  0999 V2000
   -1.0106   -0.4367    0.0000 F   0  0  0  0  0  0  0  0  0  0  0  0
   -0.0000    0.4204   -0.0000 C   0  0  0  0  0  3  0  0  0  0  0  0
    1.1369    0.1760   -0.0000 O   0  0  0  0  0  0  0  0  0  0  0  0
  1  2  1  0  0  0  0
  2  3  2  0  0  0  0
M  END
>  <program>
Gaussian 16, Revision A.03

>  <basis>
6-311+G(2d) (5D, 7F)

>  <File Format>
g03

$$$$
