/home/yang/projects/t99_calc/v1/qchem_data/combined/log_fchk/cooh.log
 OpenBabel05152619573D
Gaussian applications/g16/g16/g16 # opt freq wb97xd/6-311+g(2d,2p) geom=connecti
  4  3  0  0  0  0  0  0  0  0999 V2000
    0.1335   -0.4205   -0.0000 C   0  0  0  0  0  3  0  0  0  0  0  0
    1.1512    0.1735    0.0000 O   0  0  0  0  0  0  0  0  0  0  0  0
   -1.1124    0.0183    0.0000 O   0  0  0  0  0  0  0  0  0  0  0  0
   -1.1116    0.9884   -0.0000 H   0  0  0  0  0  0  0  0  0  0  0  0
  1  2  2  0  0  0  0
  1  3  1  0  0  0  0
  4  3  1  0  0  0  0
M  END
>  <program>
Gaussian 16, Revision A.03

>  <basis>
6-311+G(2d,2p) (5D, 7F)

>  <File Format>
g03

$$$$
