/home/yang/projects/t99_calc/v1/qchem_data/combined/log_fchk/cpropane.log
 OpenBabel05152619573D
Gaussian applications/g16/g16/g16 # opt wb97xd/6-311+g(2d) geom=connectivity fre
  9  9  0  0  0  0  0  0  0  0999 V2000
    0.3029    0.8266   -0.0001 C   0  0  0  0  0  0  0  0  0  0  0  0
    0.5570    1.5190   -1.1008 F   0  0  0  0  0  0  0  0  0  0  0  0
    0.5568    1.5189    1.1007 F   0  0  0  0  0  0  0  0  0  0  0  0
    0.5644   -0.6758   -0.0002 C   0  0  0  0  0  0  0  0  0  0  0  0
    1.0379   -1.2411    1.1009 F   0  0  0  0  0  0  0  0  0  0  0  0
    1.0374   -1.2418   -1.1009 F   0  0  0  0  0  0  0  0  0  0  0  0
   -0.8678   -0.1510    0.0001 C   0  0  0  0  0  0  0  0  0  0  0  0
   -1.5944   -0.2771   -1.1008 F   0  0  0  0  0  0  0  0  0  0  0  0
   -1.5943   -0.2777    1.1010 F   0  0  0  0  0  0  0  0  0  0  0  0
  1  7  1  0  0  0  0
  1  3  1  0  0  0  0
  2  1  1  0  0  0  0
  4  1  1  0  0  0  0
  4  7  1  0  0  0  0
  4  5  1  0  0  0  0
  6  4  1  0  0  0  0
  7  9  1  0  0  0  0
  8  7  1  0  0  0  0
M  END
>  <program>
Gaussian 16, Revision A.03

>  <basis>
6-311+G(2d) (5D, 7F)

>  <File Format>
g03

$$$$
