/home/yang/projects/t99_calc/v1/qchem_data/combined/log_fchk/cpropane_picomplex.log
 OpenBabel05152619573D
Gaussian 16 # opt freq wb97xd/6-311+g(2d) geom=connectivity
  9  7  0  0  0  0  0  0  0  0999 V2000
    1.0583    0.7060    0.0000 C   0  0  0  0  0  0  0  0  0  0  0  0
    0.9878    1.4241    1.0959 F   0  0  0  0  0  0  0  0  0  0  0  0
    0.9878    1.4241   -1.0959 F   0  0  0  0  0  0  0  0  0  0  0  0
   -1.9525   -0.6222   -0.0000 C   0  0  0  0  0  2  0  0  0  0  0  0
   -2.3351    0.0718   -1.0282 F   0  0  0  0  0  0  0  0  0  0  0  0
   -2.3351    0.0718    1.0282 F   0  0  0  0  0  0  0  0  0  0  0  0
    1.1806   -0.6076   -0.0000 C   0  0  0  0  0  0  0  0  0  0  0  0
    1.2518   -1.3213    1.0951 F   0  0  0  0  0  0  0  0  0  0  0  0
    1.2518   -1.3213   -1.0952 F   0  0  0  0  0  0  0  0  0  0  0  0
  1  2  1  0  0  0  0
  3  1  1  0  0  0  0
  4  6  1  0  0  0  0
  5  4  1  0  0  0  0
  7  1  2  0  0  0  0
  7  8  1  0  0  0  0
  9  7  1  0  0  0  0
M  END
>  <program>
Gaussian 16, Revision A.03

>  <basis>
6-311+G(2d) (5D, 7F)

>  <File Format>
g03

$$$$
