/home/yang/projects/t99_calc/v1/qchem_data/combined/log_fchk/cpropane_intts_prod.log
 OpenBabel05152619573D
Gaussian 16 # opt uwb97xd/6-311+g(2d) guess=read geom=connectivity scf=xqc freq
  9  8  0  0  0  0  0  0  0  0999 V2000
   -1.2610   -0.1132    0.0000 C   0  0  0  0  0  3  0  0  0  0  0  0
   -1.4650   -0.8258    1.0851 F   0  0  0  0  0  0  0  0  0  0  0  0
   -1.4650   -0.8258   -1.0850 F   0  0  0  0  0  0  0  0  0  0  0  0
    1.2610   -0.1132   -0.0000 C   0  0  0  0  0  3  0  0  0  0  0  0
    1.4650   -0.8257   -1.0851 F   0  0  0  0  0  0  0  0  0  0  0  0
    1.4650   -0.8257    1.0851 F   0  0  0  0  0  0  0  0  0  0  0  0
   -0.0000    0.7214   -0.0000 C   0  0  0  0  0  0  0  0  0  0  0  0
   -0.0000    1.4865    1.1027 F   0  0  0  0  0  0  0  0  0  0  0  0
   -0.0000    1.4865   -1.1027 F   0  0  0  0  0  0  0  0  0  0  0  0
  1  2  1  0  0  0  0
  3  1  1  0  0  0  0
  4  6  1  0  0  0  0
  5  4  1  0  0  0  0
  7  4  1  0  0  0  0
  7  1  1  0  0  0  0
  7  8  1  0  0  0  0
  9  7  1  0  0  0  0
M  END
>  <program>
Gaussian 16, Revision A.03

>  <basis>
6-311+G(2d) (5D, 7F)

>  <File Format>
g03

$$$$
