/home/yang/projects/t99_calc/v1/qchem_data/combined/log_fchk/e1_minusH.log
 OpenBabel05152619573D
Gaussian 16 # opt freq uwb97xd/6-311+g(2d) geom=connectivity
 17 16  0  0  1  0  0  0  0  0999 V2000
    2.9105   -0.0981   -0.1555 C   0  0  0  0  0  0  0  0  0  0  0  0
    3.8095   -0.7135    0.6010 F   0  0  0  0  0  0  0  0  0  0  0  0
    2.9386   -0.6276   -1.3707 F   0  0  0  0  0  0  0  0  0  0  0  0
    3.2257    1.1874   -0.2350 F   0  0  0  0  0  0  0  0  0  0  0  0
    1.5101   -0.2822    0.4935 C   0  0  0  0  0  0  0  0  0  0  0  0
    1.2672   -1.5947    0.5814 F   0  0  0  0  0  0  0  0  0  0  0  0
    1.5554    0.2442    1.7228 F   0  0  0  0  0  0  0  0  0  0  0  0
    0.2464   -0.1257   -1.5087 F   0  0  0  0  0  0  0  0  0  0  0  0
    0.5361    1.6943   -0.3903 F   0  0  0  0  0  0  0  0  0  0  0  0
    0.3350    0.3791   -0.2759 C   0  0  0  0  0  0  0  0  0  0  0  0
   -0.8025    0.1110    0.4451 O   0  0  0  0  0  0  0  0  0  0  0  0
   -1.9684    0.6068   -0.0257 C   0  0  1  0  0  3  0  0  0  0  0  0
   -3.1022   -0.3892   -0.0675 C   0  0  0  0  0  0  0  0  0  0  0  0
   -2.2996    1.7839    0.4685 F   0  0  0  0  0  0  0  0  0  0  0  0
   -2.7338   -1.4593   -0.7629 F   0  0  0  0  0  0  0  0  0  0  0  0
   -3.4549   -0.7926    1.1597 F   0  0  0  0  0  0  0  0  0  0  0  0
   -4.1672    0.1606   -0.6408 F   0  0  0  0  0  0  0  0  0  0  0  0
  1  5  1  0  0  0  0
  1  2  1  0  0  0  0
  3  1  1  0  0  0  0
  4  1  1  0  0  0  0
  5  6  1  0  0  0  0
  5  7  1  0  0  0  0
  8 10  1  0  0  0  0
  9 10  1  0  0  0  0
 10 11  1  0  0  0  0
 10  5  1  0  0  0  0
 12 11  1  0  0  0  0
 12 14  1  1  0  0  0
 13 12  1  0  0  0  0
 13 16  1  0  0  0  0
 15 13  1  0  0  0  0
 17 13  1  0  0  0  0
M  END
>  <program>
Gaussian 16, Revision C.02

>  <basis>
6-311+G(2d) (5D, 7F)

>  <File Format>
g03

$$$$
