Title Card Required
 OpenBabel05152619573D

  7  7  0  0  0  0  0  0  0  0999 V2000
    0.0098    0.7248    0.0000 C   0  0  0  0  0  0  0  0  0  0  0  0
    0.2586    1.4390    1.0804 F   0  0  0  0  0  0  0  0  0  0  0  0
    0.2586    1.4390   -1.0804 F   0  0  0  0  0  0  0  0  0  0  0  0
    0.0098   -0.7248   -0.0000 C   0  0  0  0  0  0  0  0  0  0  0  0
    0.2586   -1.4390   -1.0804 F   0  0  0  0  0  0  0  0  0  0  0  0
    0.2586   -1.4390    1.0804 F   0  0  0  0  0  0  0  0  0  0  0  0
   -1.1783    0.0000    0.0000 O   0  0  0  0  0  0  0  0  0  0  0  0
  1  2  1  0  0  0  0
  1  3  1  0  0  0  0
  1  4  1  0  0  0  0
  1  7  1  0  0  0  0
  4  5  1  0  0  0  0
  4  6  1  0  0  0  0
  4  7  1  0  0  0  0
M  END
$$$$
