/home/yang/projects/t99_calc/v1/qchem_data/combined/log_fchk/ester_oh.log
 OpenBabel05152619573D
Gaussian 16 # opt freq wb97xd/6-311+g(2d) geom=connectivity
 19 18  0  0  1  0  0  0  0  0999 V2000
    3.0401    0.0411   -0.0120 C   0  0  0  0  0  0  0  0  0  0  0  0
    3.8735    1.0291    0.2915 F   0  0  0  0  0  0  0  0  0  0  0  0
    3.2346   -0.9573    0.8406 F   0  0  0  0  0  0  0  0  0  0  0  0
    3.3101   -0.3800   -1.2395 F   0  0  0  0  0  0  0  0  0  0  0  0
    1.5832    0.5734    0.0836 C   0  0  0  0  0  0  0  0  0  0  0  0
    1.4161    1.0910    1.3065 F   0  0  0  0  0  0  0  0  0  0  0  0
    1.4449    1.5434   -0.8286 F   0  0  0  0  0  0  0  0  0  0  0  0
    0.5345   -1.4204    0.8160 F   0  0  0  0  0  0  0  0  0  0  0  0
    0.6770   -1.1013   -1.3186 F   0  0  0  0  0  0  0  0  0  0  0  0
    0.4700   -0.4876   -0.1483 C   0  0  0  0  0  0  0  0  0  0  0  0
   -0.7143    0.1790   -0.1295 O   0  0  0  0  0  0  0  0  0  0  0  0
   -3.0422    0.5091   -0.1062 C   0  0  0  0  0  0  0  0  0  0  0  0
   -2.9441    1.6057    0.6256 F   0  0  0  0  0  0  0  0  0  0  0  0
   -2.9756    0.8283   -1.3849 F   0  0  0  0  0  0  0  0  0  0  0  0
   -4.2119   -0.0748    0.1319 F   0  0  0  0  0  0  0  0  0  0  0  0
   -2.0069   -0.7716    1.5324 O   0  0  0  0  0  1  0  0  0  0  0  0
   -1.8774   -0.5244    0.2262 C   0  0  2  0  0  0  0  0  0  0  0  0
   -1.9967   -1.6392   -0.5687 O   0  0  0  0  0  0  0  0  0  0  0  0
   -2.5296   -2.2891   -0.0977 H   0  0  0  0  0  0  0  0  0  0  0  0
  1  5  1  0  0  0  0
  1  2  1  0  0  0  0
  1  3  1  0  0  0  0
  4  1  1  0  0  0  0
  5  6  1  0  0  0  0
  7  5  1  0  0  0  0
  9 10  1  0  0  0  0
 10 11  1  0  0  0  0
 10  5  1  0  0  0  0
 10  8  1  0  0  0  0
 11 17  1  0  0  0  0
 12 15  1  0  0  0  0
 12 17  1  0  0  0  0
 12 13  1  0  0  0  0
 14 12  1  0  0  0  0
 17 16  1  1  0  0  0
 18 19  1  0  0  0  0
 18 17  1  0  0  0  0
M  END
>  <program>
Gaussian 16, Revision A.03

>  <basis>
6-311+G(2d) (5D, 7F)

>  <File Format>
g03

$$$$
