/home/yang/projects/t99_calc/v1/qchem_data/combined/log_fchk/ethane_2000.log
 OpenBabel05152619573D
Gaussian Volumes/gcode/g16/g16/g16 # freq=(readfc) temperature=1 geom=allcheck
  8  7  0  0  0  0  0  0  0  0999 V2000
   -0.5999   -0.0011    0.0001 C   0  0  0  0  0  0  0  0  0  0  0  0
   -0.9953   -0.6743    1.0814 F   0  0  0  0  0  0  0  0  0  0  0  0
   -1.1843    1.1835    0.0003 F   0  0  0  0  0  0  0  0  0  0  0  0
    0.9387    0.1589   -0.0003 C   0  0  0  0  0  0  0  0  0  0  0  0
    1.4878    1.2147   -0.0001 O   0  0  0  0  0  0  0  0  0  0  0  0
    1.5214   -1.0348   -0.0001 O   0  0  0  0  0  0  0  0  0  0  0  0
    2.4763   -0.9009    0.0003 H   0  0  0  0  0  0  0  0  0  0  0  0
   -0.9962   -0.6741   -1.0814 F   0  0  0  0  0  0  0  0  0  0  0  0
  1  3  1  0  0  0  0
  1  2  1  0  0  0  0
  4  5  2  0  0  0  0
  4  6  1  0  0  0  0
  4  1  1  0  0  0  0
  6  7  1  0  0  0  0
  8  1  1  0  0  0  0
M  END
>  <program>
Gaussian 16, Revision A.03

>  <File Format>
g03

$$$$
