Title Card Required
 OpenBabel05152619573D

 13 12  0  0  0  0  0  0  0  0999 V2000
    1.5274   -0.2443    0.0000 C   0  0  0  0  0  0  0  0  0  0  0  0
    0.2395    0.6191    0.0000 C   0  0  0  0  0  0  0  0  0  0  0  0
   -1.3445   -0.3605    0.0000 S   0  0  0  0  0  0  0  0  0  0  0  0
   -1.4005   -1.0282   -1.2613 O   0  0  0  0  0  0  0  0  0  0  0  0
   -1.4006   -1.0281    1.2614 O   0  0  0  0  0  0  0  0  0  0  0  0
    0.2493    1.3929   -1.0895 F   0  0  0  0  0  0  0  0  0  0  0  0
    0.2493    1.3929    1.0895 F   0  0  0  0  0  0  0  0  0  0  0  0
    1.5776   -1.0085   -1.0802 F   0  0  0  0  0  0  0  0  0  0  0  0
    1.5776   -1.0086    1.0800 F   0  0  0  0  0  0  0  0  0  0  0  0
   -2.4161    0.8684   -0.0001 N   0  0  0  0  0  0  0  0  0  0  0  0
   -2.9460    0.9382   -0.8544 H   0  0  0  0  0  0  0  0  0  0  0  0
   -2.9461    0.9382    0.8541 H   0  0  0  0  0  0  0  0  0  0  0  0
    2.5822    0.5662    0.0001 F   0  0  0  0  0  0  0  0  0  0  0  0
  1  2  1  0  0  0  0
  1  8  1  0  0  0  0
  1  9  1  0  0  0  0
  1 13  1  0  0  0  0
  2  3  1  0  0  0  0
  2  6  1  0  0  0  0
  2  7  1  0  0  0  0
  3  4  2  0  0  0  0
  3  5  2  0  0  0  0
  3 10  1  0  0  0  0
 10 11  1  0  0  0  0
 10 12  1  0  0  0  0
M  END
$$$$
