Title Card Required
 OpenBabel05152619573D

 28 27  0  0  0  0  0  0  0  0999 V2000
   -0.4300   -0.4921    0.1035 C   0  0  0  0  0  0  0  0  0  0  0  0
   -0.4730   -1.2705    1.1924 F   0  0  0  0  0  0  0  0  0  0  0  0
   -0.3292   -1.2613   -0.9869 F   0  0  0  0  0  0  0  0  0  0  0  0
   -1.7614    0.3227    0.0157 C   0  0  0  0  0  0  0  0  0  0  0  0
   -1.6969    1.3428    0.8818 F   0  0  0  0  0  0  0  0  0  0  0  0
   -1.8775    0.8141   -1.2249 F   0  0  0  0  0  0  0  0  0  0  0  0
   -3.0186   -0.5402    0.3544 C   0  0  0  0  0  0  0  0  0  0  0  0
   -3.1447   -0.6113    1.6791 F   0  0  0  0  0  0  0  0  0  0  0  0
   -2.8716   -1.7730   -0.1418 F   0  0  0  0  0  0  0  0  0  0  0  0
    0.8378    0.4187    0.2016 C   0  0  0  0  0  0  0  0  0  0  0  0
    2.1575   -0.3381   -0.1594 C   0  0  0  0  0  0  0  0  0  0  0  0
    0.9313    0.8833    1.4537 F   0  0  0  0  0  0  0  0  0  0  0  0
    0.7024    1.4519   -0.6397 F   0  0  0  0  0  0  0  0  0  0  0  0
    2.1258   -1.5622    0.3825 F   0  0  0  0  0  0  0  0  0  0  0  0
    2.2298   -0.4529   -1.4916 F   0  0  0  0  0  0  0  0  0  0  0  0
    3.4379    0.3895    0.3574 C   0  0  0  0  0  0  0  0  0  0  0  0
    4.7558   -0.0935   -0.3180 C   0  0  0  0  0  0  0  0  0  0  0  0
    4.8403   -1.4176   -0.2793 F   0  0  0  0  0  0  0  0  0  0  0  0
    4.8165    0.3105   -1.5779 F   0  0  0  0  0  0  0  0  0  0  0  0
    3.3281    1.7064    0.1324 F   0  0  0  0  0  0  0  0  0  0  0  0
    3.5535    0.1768    1.6721 F   0  0  0  0  0  0  0  0  0  0  0  0
   -4.6330    0.1011   -0.3461 S   0  0  0  0  0  0  0  0  0  0  0  0
   -5.6397   -0.4939    0.4743 O   0  0  0  0  0  0  0  0  0  0  0  0
   -4.5550   -0.0753   -1.7605 O   0  0  0  0  0  0  0  0  0  0  0  0
   -4.5383    1.6924    0.0094 N   0  0  0  0  0  0  0  0  0  0  0  0
   -4.4654    2.2760   -0.8098 H   0  0  0  0  0  0  0  0  0  0  0  0
   -5.2251    1.9843    0.6874 H   0  0  0  0  0  0  0  0  0  0  0  0
    5.7843    0.4216    0.3429 F   0  0  0  0  0  0  0  0  0  0  0  0
  1  2  1  0  0  0  0
  1  3  1  0  0  0  0
  1  4  1  0  0  0  0
  1 10  1  0  0  0  0
  4  5  1  0  0  0  0
  4  6  1  0  0  0  0
  4  7  1  0  0  0  0
  7  8  1  0  0  0  0
  7  9  1  0  0  0  0
  7 22  1  0  0  0  0
 10 11  1  0  0  0  0
 10 12  1  0  0  0  0
 10 13  1  0  0  0  0
 11 14  1  0  0  0  0
 11 15  1  0  0  0  0
 11 16  1  0  0  0  0
 16 17  1  0  0  0  0
 16 20  1  0  0  0  0
 16 21  1  0  0  0  0
 17 18  1  0  0  0  0
 17 19  1  0  0  0  0
 17 28  1  0  0  0  0
 22 23  2  0  0  0  0
 22 24  2  0  0  0  0
 22 25  1  0  0  0  0
 25 26  1  0  0  0  0
 25 27  1  0  0  0  0
M  END
$$$$
