Title Card Required
 OpenBabel05152619573D

 25 24  0  0  0  0  0  0  0  0999 V2000
   -0.2089   -0.5275    0.0075 C   0  0  0  0  0  0  0  0  0  0  0  0
   -0.1955   -1.3977   -1.0106 F   0  0  0  0  0  0  0  0  0  0  0  0
   -0.2512   -1.2000    1.1633 F   0  0  0  0  0  0  0  0  0  0  0  0
    1.1090    0.3123   -0.0312 C   0  0  0  0  0  0  0  0  0  0  0  0
    0.9917    1.2500   -0.9808 F   0  0  0  0  0  0  0  0  0  0  0  0
    1.2628    0.9142    1.1554 F   0  0  0  0  0  0  0  0  0  0  0  0
    2.3687   -0.5575   -0.3427 C   0  0  0  0  0  0  0  0  0  0  0  0
    2.4475   -0.7400   -1.6603 F   0  0  0  0  0  0  0  0  0  0  0  0
    2.2630   -1.7454    0.2617 F   0  0  0  0  0  0  0  0  0  0  0  0
   -1.4970    0.3501   -0.1171 C   0  0  0  0  0  0  0  0  0  0  0  0
   -2.7861   -0.3889    0.3603 C   0  0  0  0  0  0  0  0  0  0  0  0
   -1.6483    0.7041   -1.3999 F   0  0  0  0  0  0  0  0  0  0  0  0
   -1.3515    1.4566    0.6242 F   0  0  0  0  0  0  0  0  0  0  0  0
   -2.7771   -1.6484   -0.0971 F   0  0  0  0  0  0  0  0  0  0  0  0
   -2.8030   -0.4063    1.6969 F   0  0  0  0  0  0  0  0  0  0  0  0
   -4.1105    0.2753   -0.1205 C   0  0  0  0  0  0  0  0  0  0  0  0
   -4.1054    1.5748    0.1529 F   0  0  0  0  0  0  0  0  0  0  0  0
   -4.2791    0.1054   -1.4232 F   0  0  0  0  0  0  0  0  0  0  0  0
    3.9955    0.1657    0.2393 S   0  0  0  0  0  0  0  0  0  0  0  0
    4.9824   -0.4805   -0.5662 O   0  0  0  0  0  0  0  0  0  0  0  0
    3.9725    0.1080    1.6655 O   0  0  0  0  0  0  0  0  0  0  0  0
    3.8583    1.7199   -0.2443 N   0  0  0  0  0  0  0  0  0  0  0  0
    3.8047    2.3693    0.5253 H   0  0  0  0  0  0  0  0  0  0  0  0
    4.5147    1.9640   -0.9697 H   0  0  0  0  0  0  0  0  0  0  0  0
   -5.1260   -0.2926    0.5166 F   0  0  0  0  0  0  0  0  0  0  0  0
  1  2  1  0  0  0  0
  1  3  1  0  0  0  0
  1  4  1  0  0  0  0
  1 10  1  0  0  0  0
  4  5  1  0  0  0  0
  4  6  1  0  0  0  0
  4  7  1  0  0  0  0
  7  8  1  0  0  0  0
  7  9  1  0  0  0  0
  7 19  1  0  0  0  0
 10 11  1  0  0  0  0
 10 12  1  0  0  0  0
 10 13  1  0  0  0  0
 11 14  1  0  0  0  0
 11 15  1  0  0  0  0
 11 16  1  0  0  0  0
 16 17  1  0  0  0  0
 16 18  1  0  0  0  0
 16 25  1  0  0  0  0
 19 20  2  0  0  0  0
 19 21  2  0  0  0  0
 19 22  1  0  0  0  0
 22 23  1  0  0  0  0
 22 24  1  0  0  0  0
M  END
$$$$
