/home/yang/projects/t99_calc/v1/qchem_data/combined/log_fchk/fosa.log
 OpenBabel05152619573D
Gaussian 16 # opt freq wb97xd/6-311+g(2d,2p) geom=connectivity scf=xqc
 31 30  0  0  0  0  0  0  0  0999 V2000
    1.0849   -0.5072   -0.1223 C   0  0  0  0  0  0  0  0  0  0  0  0
    1.1165   -1.1721   -1.2843 F   0  0  0  0  0  0  0  0  0  0  0  0
    1.0234   -1.3831    0.8875 F   0  0  0  0  0  0  0  0  0  0  0  0
    2.4031    0.3215    0.0181 C   0  0  0  0  0  0  0  0  0  0  0  0
    2.2997    1.4220   -0.7391 F   0  0  0  0  0  0  0  0  0  0  0  0
    2.5399    0.6881    1.2990 F   0  0  0  0  0  0  0  0  0  0  0  0
    3.6672   -0.4772   -0.4338 C   0  0  0  0  0  0  0  0  0  0  0  0
    3.7624   -0.4127   -1.7614 F   0  0  0  0  0  0  0  0  0  0  0  0
    3.5547   -1.7562   -0.0609 F   0  0  0  0  0  0  0  0  0  0  0  0
   -0.2009    0.3834   -0.1015 C   0  0  0  0  0  0  0  0  0  0  0  0
   -1.4977   -0.4331    0.2114 C   0  0  0  0  0  0  0  0  0  0  0  0
   -0.3325    0.9669   -1.2994 F   0  0  0  0  0  0  0  0  0  0  0  0
   -0.0630    1.3308    0.8348 F   0  0  0  0  0  0  0  0  0  0  0  0
   -1.4528   -1.5958   -0.4504 F   0  0  0  0  0  0  0  0  0  0  0  0
   -1.5377   -0.6770    1.5269 F   0  0  0  0  0  0  0  0  0  0  0  0
   -2.8034    0.3192   -0.2058 C   0  0  0  0  0  0  0  0  0  0  0  0
   -4.0813   -0.2472    0.4886 C   0  0  0  0  0  0  0  0  0  0  0  0
   -4.0377   -1.5866    0.4861 F   0  0  0  0  0  0  0  0  0  0  0  0
   -4.1142    0.1892    1.7518 F   0  0  0  0  0  0  0  0  0  0  0  0
   -2.6897    1.6134    0.1207 F   0  0  0  0  0  0  0  0  0  0  0  0
   -2.9468    0.2164   -1.5332 F   0  0  0  0  0  0  0  0  0  0  0  0
    5.2864    0.1237    0.2913 S   0  0  0  0  0  0  0  0  0  0  0  0
    6.2832   -0.3638   -0.6084 O   0  0  0  0  0  0  0  0  0  0  0  0
    5.2468   -0.1967    1.6818 O   0  0  0  0  0  0  0  0  0  0  0  0
   -5.4141    0.1802   -0.1950 C   0  0  0  0  0  0  0  0  0  0  0  0
   -6.4243   -0.1620    0.5936 F   0  0  0  0  0  0  0  0  0  0  0  0
   -5.5627   -0.4277   -1.3622 F   0  0  0  0  0  0  0  0  0  0  0  0
   -5.4409    1.4946   -0.3806 F   0  0  0  0  0  0  0  0  0  0  0  0
    5.1536    1.7405    0.1020 N   0  0  0  0  0  0  0  0  0  0  0  0
    5.0895    2.2364    0.9777 H   0  0  0  0  0  0  0  0  0  0  0  0
    5.8177    2.1140   -0.5583 H   0  0  0  0  0  0  0  0  0  0  0  0
  1 10  1  0  0  0  0
  1  4  1  0  0  0  0
  1  3  1  0  0  0  0
  2  1  1  0  0  0  0
  4  6  1  0  0  0  0
  5  4  1  0  0  0  0
  7  9  1  0  0  0  0
  7  4  1  0  0  0  0
  7 22  1  0  0  0  0
  8  7  1  0  0  0  0
 10 11  1  0  0  0  0
 10 13  1  0  0  0  0
 11 15  1  0  0  0  0
 12 10  1  0  0  0  0
 14 11  1  0  0  0  0
 16 20  1  0  0  0  0
 16 11  1  0  0  0  0
 16 17  1  0  0  0  0
 17 19  1  0  0  0  0
 18 17  1  0  0  0  0
 21 16  1  0  0  0  0
 22 24  2  0  0  0  0
 23 22  2  0  0  0  0
 25 17  1  0  0  0  0
 25 26  1  0  0  0  0
 27 25  1  0  0  0  0
 28 25  1  0  0  0  0
 29 22  1  0  0  0  0
 29 30  1  0  0  0  0
 31 29  1  0  0  0  0
M  END
>  <program>
Gaussian 16, Revision A.03

>  <basis>
6-311+G(2d,2p) (5D, 7F)

>  <File Format>
g03

$$$$
