/home/yang/projects/t99_calc/v1/qchem_data/combined/log_fchk/fpnsa.log
 OpenBabel05152619573D
Gaussian 16 # opt freq wb97xd/6-311+g(2d,2p) geom=connectivity scf=xqc
 22 21  0  0  0  0  0  0  0  0999 V2000
   -0.8783   -0.4158    0.0010 C   0  0  0  0  0  0  0  0  0  0  0  0
   -0.8900   -1.3896   -0.9191 F   0  0  0  0  0  0  0  0  0  0  0  0
   -0.9815   -0.9619    1.2186 F   0  0  0  0  0  0  0  0  0  0  0  0
    0.4819    0.3481   -0.0882 C   0  0  0  0  0  0  0  0  0  0  0  0
    0.4356    1.1846   -1.1335 F   0  0  0  0  0  0  0  0  0  0  0  0
    0.6387    1.0646    1.0328 F   0  0  0  0  0  0  0  0  0  0  0  0
    1.7014   -0.6109   -0.2703 C   0  0  0  0  0  0  0  0  0  0  0  0
    1.8012   -0.9363   -1.5587 F   0  0  0  0  0  0  0  0  0  0  0  0
    1.5192   -1.7210    0.4522 F   0  0  0  0  0  0  0  0  0  0  0  0
   -2.1156    0.5020   -0.2500 C   0  0  0  0  0  0  0  0  0  0  0  0
   -3.4657   -0.1121    0.2258 C   0  0  0  0  0  0  0  0  0  0  0  0
   -2.2179    0.7398   -1.5618 F   0  0  0  0  0  0  0  0  0  0  0  0
   -1.9524    1.6656    0.3957 F   0  0  0  0  0  0  0  0  0  0  0  0
   -3.6082   -1.3446   -0.2461 F   0  0  0  0  0  0  0  0  0  0  0  0
   -3.5317   -0.1410    1.5482 F   0  0  0  0  0  0  0  0  0  0  0  0
    3.3495    0.0886    0.2792 S   0  0  0  0  0  0  0  0  0  0  0  0
    4.3199   -0.6892   -0.4235 O   0  0  0  0  0  0  0  0  0  0  0  0
    3.2892    0.1859    1.7021 O   0  0  0  0  0  0  0  0  0  0  0  0
    3.3061    1.5864   -0.3707 N   0  0  0  0  0  0  0  0  0  0  0  0
    3.2671    2.3168    0.3235 H   0  0  0  0  0  0  0  0  0  0  0  0
    3.9918    1.7183   -1.0980 H   0  0  0  0  0  0  0  0  0  0  0  0
   -4.4584    0.6399   -0.2323 F   0  0  0  0  0  0  0  0  0  0  0  0
  1  3  1  0  0  0  0
  2  1  1  0  0  0  0
  4  1  1  0  0  0  0
  4  6  1  0  0  0  0
  5  4  1  0  0  0  0
  7  4  1  0  0  0  0
  7 16  1  0  0  0  0
  7  9  1  0  0  0  0
  8  7  1  0  0  0  0
 10  1  1  0  0  0  0
 10 11  1  0  0  0  0
 10 13  1  0  0  0  0
 11 15  1  0  0  0  0
 12 10  1  0  0  0  0
 14 11  1  0  0  0  0
 16 18  2  0  0  0  0
 17 16  2  0  0  0  0
 19 16  1  0  0  0  0
 19 20  1  0  0  0  0
 21 19  1  0  0  0  0
 22 11  1  0  0  0  0
M  END
>  <program>
Gaussian 16, Revision C.02

>  <basis>
6-311+G(2d,2p) (5D, 7F)

>  <File Format>
g03

$$$$
