Title Card Required
 OpenBabel05152619573D

 16 15  0  0  0  0  0  0  0  0999 V2000
   -2.2145    0.1234    0.0907 C   0  0  0  0  0  0  0  0  0  0  0  0
   -0.8058   -0.5094   -0.1090 C   0  0  0  0  0  0  0  0  0  0  0  0
    0.3567    0.5230   -0.1143 C   0  0  0  0  0  0  0  0  0  0  0  0
    2.0349   -0.2661    0.1087 S   0  0  0  0  0  0  0  0  0  0  0  0
    2.1530   -0.5986    1.4922 O   0  0  0  0  0  0  0  0  0  0  0  0
    2.1633   -1.2082   -0.9577 O   0  0  0  0  0  0  0  0  0  0  0  0
    0.1896    1.4087    0.8736 F   0  0  0  0  0  0  0  0  0  0  0  0
    0.3578    1.1706   -1.2828 F   0  0  0  0  0  0  0  0  0  0  0  0
   -0.6146   -1.3920    0.8791 F   0  0  0  0  0  0  0  0  0  0  0  0
   -0.8117   -1.1530   -1.2798 F   0  0  0  0  0  0  0  0  0  0  0  0
   -2.3570    0.5807    1.3259 F   0  0  0  0  0  0  0  0  0  0  0  0
   -2.4000    1.1221   -0.7660 F   0  0  0  0  0  0  0  0  0  0  0  0
    2.9785    1.0291   -0.1935 N   0  0  0  0  0  0  0  0  0  0  0  0
    3.5207    1.3189    0.6048 H   0  0  0  0  0  0  0  0  0  0  0  0
    3.4755    0.9744   -1.0684 H   0  0  0  0  0  0  0  0  0  0  0  0
   -3.1367   -0.8046   -0.1279 F   0  0  0  0  0  0  0  0  0  0  0  0
  1  2  1  0  0  0  0
  1 11  1  0  0  0  0
  1 12  1  0  0  0  0
  1 16  1  0  0  0  0
  2  3  1  0  0  0  0
  2  9  1  0  0  0  0
  2 10  1  0  0  0  0
  3  4  1  0  0  0  0
  3  7  1  0  0  0  0
  3  8  1  0  0  0  0
  4  5  2  0  0  0  0
  4  6  2  0  0  0  0
  4 13  1  0  0  0  0
 13 14  1  0  0  0  0
 13 15  1  0  0  0  0
M  END
$$$$
