/home/yang/projects/t99_calc/v1/qchem_data/combined/log_fchk/frd_903.log
 OpenBabel05152619573D
Gaussian 16 # opt freq wb97xd/6-311+g(2d) geom=connectivity
 21 20  0  0  1  0  0  0  0  0999 V2000
   -3.2453    0.0518   -0.0477 C   0  0  0  0  0  0  0  0  0  0  0  0
   -4.1368   -0.8388   -0.4618 F   0  0  0  0  0  0  0  0  0  0  0  0
   -3.5569    0.4291    1.1834 F   0  0  0  0  0  0  0  0  0  0  0  0
   -3.2909    1.1082   -0.8502 F   0  0  0  0  0  0  0  0  0  0  0  0
   -1.8364   -0.6019   -0.0838 C   0  0  0  0  0  0  0  0  0  0  0  0
   -1.8466   -1.6490    0.7479 F   0  0  0  0  0  0  0  0  0  0  0  0
   -1.6128   -1.0296   -1.3326 F   0  0  0  0  0  0  0  0  0  0  0  0
   -0.8661    0.8212    1.5344 F   0  0  0  0  0  0  0  0  0  0  0  0
   -0.5799    1.3543   -0.5427 F   0  0  0  0  0  0  0  0  0  0  0  0
   -0.6588    0.3298    0.3187 C   0  0  0  0  0  0  0  0  0  0  0  0
    0.4833   -0.4335    0.3019 O   0  0  0  0  0  0  0  0  0  0  0  0
    1.6422    0.0268   -0.2718 C   0  0  1  0  0  0  0  0  0  0  0  0
    2.0374    1.4823    0.1196 C   0  0  0  0  0  0  0  0  0  0  0  0
    1.9987    1.8333    1.2533 O   0  0  0  0  0  0  0  0  0  0  0  0
    2.4385    2.2475   -0.8844 O   0  0  0  0  0  0  0  0  0  0  0  0
    2.3552    1.7757   -1.7232 H   0  0  0  0  0  0  0  0  0  0  0  0
    2.7462   -0.9718    0.1631 C   0  0  0  0  0  0  0  0  0  0  0  0
    1.5642   -0.0673   -1.6403 F   0  0  0  0  0  0  0  0  0  0  0  0
    2.8573   -1.0190    1.4773 F   0  0  0  0  0  0  0  0  0  0  0  0
    2.4678   -2.1840   -0.2944 F   0  0  0  0  0  0  0  0  0  0  0  0
    3.9086   -0.5756   -0.3580 F   0  0  0  0  0  0  0  0  0  0  0  0
  1  3  1  0  0  0  0
  2  1  1  0  0  0  0
  4  1  1  0  0  0  0
  5  1  1  0  0  0  0
  5 10  1  0  0  0  0
  5  6  1  0  0  0  0
  7  5  1  0  0  0  0
  9 10  1  0  0  0  0
 10  8  1  0  0  0  0
 11 10  1  0  0  0  0
 12 18  1  6  0  0  0
 12 13  1  0  0  0  0
 12 17  1  0  0  0  0
 12 11  1  0  0  0  0
 13 14  2  0  0  0  0
 15 13  1  0  0  0  0
 16 15  1  0  0  0  0
 17 19  1  0  0  0  0
 20 17  1  0  0  0  0
 21 17  1  0  0  0  0
M  END
>  <program>
Gaussian 16, Revision C.02

>  <basis>
6-311+G(2d) (5D, 7F)

>  <File Format>
g03

$$$$
