/home/yang/projects/t99_calc/v1/qchem_data/combined/log_fchk/frd_903_0HFAts_prod_COlossprod.log
 OpenBabel05152619573D
Gaussian 16 # opt freq wb97xd/6-311+g(2d) geom=connectivity
 17 16  0  0  0  0  0  0  0  0999 V2000
    2.9140   -0.0506    0.0002 C   0  0  0  0  0  0  0  0  0  0  0  0
    3.7228   -1.1018    0.0006 F   0  0  0  0  0  0  0  0  0  0  0  0
    3.1591    0.6781   -1.0799 F   0  0  0  0  0  0  0  0  0  0  0  0
    3.1584    0.6783    1.0803 F   0  0  0  0  0  0  0  0  0  0  0  0
    1.4447   -0.5580   -0.0002 C   0  0  0  0  0  0  0  0  0  0  0  0
    1.2701   -1.3113   -1.0920 F   0  0  0  0  0  0  0  0  0  0  0  0
    1.2696   -1.3117    1.0914 F   0  0  0  0  0  0  0  0  0  0  0  0
    0.4944    1.3198   -1.0832 F   0  0  0  0  0  0  0  0  0  0  0  0
    0.4941    1.3194    1.0830 F   0  0  0  0  0  0  0  0  0  0  0  0
    0.3617    0.5575   -0.0003 C   0  0  0  0  0  0  0  0  0  0  0  0
   -0.8548   -0.0974   -0.0005 O   0  0  0  0  0  0  0  0  0  0  0  0
   -3.1939   -0.3544    0.0001 C   0  0  0  0  0  0  0  0  0  0  0  0
   -3.1485   -1.1297   -1.0812 F   0  0  0  0  0  0  0  0  0  0  0  0
   -3.1481   -1.1296    1.0814 F   0  0  0  0  0  0  0  0  0  0  0  0
   -4.3282    0.3189    0.0003 F   0  0  0  0  0  0  0  0  0  0  0  0
   -2.0006    0.6311   -0.0001 C   0  0  0  0  0  0  0  0  0  0  0  0
   -2.1015    1.8064   -0.0001 O   0  0  0  0  0  0  0  0  0  0  0  0
  1  2  1  0  0  0  0
  1  4  1  0  0  0  0
  3  1  1  0  0  0  0
  5  1  1  0  0  0  0
  5  7  1  0  0  0  0
  6  5  1  0  0  0  0
  8 10  1  0  0  0  0
 10  5  1  0  0  0  0
 10  9  1  0  0  0  0
 11 10  1  0  0  0  0
 11 16  1  0  0  0  0
 12 15  1  0  0  0  0
 12 14  1  0  0  0  0
 13 12  1  0  0  0  0
 16 17  2  0  0  0  0
 16 12  1  0  0  0  0
M  END
>  <program>
Gaussian 16, Revision A.03

>  <basis>
6-311+G(2d) (5D, 7F)

>  <File Format>
g03

$$$$
