/home/yang/projects/t99_calc/v1/qchem_data/combined/log_fchk/frd_903_carbF.log
 OpenBabel05152619573D
Gaussian 16 # opt wb97xd/6-311+g(2d) geom=connectivity freq
 20 19  0  0  1  0  0  0  0  0999 V2000
   -3.2387    0.0486   -0.0828 C   0  0  0  0  0  0  0  0  0  0  0  0
   -4.1121   -0.8618   -0.4915 F   0  0  0  0  0  0  0  0  0  0  0  0
   -3.5862    0.4628    1.1272 F   0  0  0  0  0  0  0  0  0  0  0  0
   -3.2697    1.0784   -0.9193 F   0  0  0  0  0  0  0  0  0  0  0  0
   -1.8246   -0.5943   -0.0594 C   0  0  0  0  0  0  0  0  0  0  0  0
   -1.8513   -1.6187    0.8003 F   0  0  0  0  0  0  0  0  0  0  0  0
   -1.5596   -1.0530   -1.2879 F   0  0  0  0  0  0  0  0  0  0  0  0
   -0.9063    0.8623    1.5596 F   0  0  0  0  0  0  0  0  0  0  0  0
   -0.5744    1.3676   -0.5181 F   0  0  0  0  0  0  0  0  0  0  0  0
   -0.6657    0.3555    0.3552 C   0  0  0  0  0  0  0  0  0  0  0  0
    0.4894   -0.3895    0.3913 O   0  0  0  0  0  0  0  0  0  0  0  0
    1.6225    0.0158   -0.2789 C   0  0  1  0  0  0  0  0  0  0  0  0
    2.0514    1.4632    0.0678 C   0  0  0  0  0  0  0  0  0  0  0  0
    1.9664    1.9494    1.1320 O   0  0  0  0  0  0  0  0  0  0  0  0
    2.7315   -0.9793    0.1668 C   0  0  0  0  0  0  0  0  0  0  0  0
    1.4772   -0.1196   -1.6132 F   0  0  0  0  0  0  0  0  0  0  0  0
    2.8907   -0.9484    1.4803 F   0  0  0  0  0  0  0  0  0  0  0  0
    2.4118   -2.2067   -0.2065 F   0  0  0  0  0  0  0  0  0  0  0  0
    3.8782   -0.6340   -0.4140 F   0  0  0  0  0  0  0  0  0  0  0  0
    2.5680    2.0779   -0.9835 F   0  0  0  0  0  0  0  0  0  0  0  0
  1  5  1  0  0  0  0
  1  3  1  0  0  0  0
  2  1  1  0  0  0  0
  4  1  1  0  0  0  0
  5 10  1  0  0  0  0
  5  6  1  0  0  0  0
  7  5  1  0  0  0  0
  9 10  1  0  0  0  0
 10 11  1  0  0  0  0
 10  8  1  0  0  0  0
 12 16  1  6  0  0  0
 12 13  1  0  0  0  0
 12 15  1  0  0  0  0
 12 11  1  0  0  0  0
 13 14  2  0  0  0  0
 15 17  1  0  0  0  0
 18 15  1  0  0  0  0
 19 15  1  0  0  0  0
 20 13  1  0  0  0  0
M  END
>  <program>
Gaussian 16, Revision A.03

>  <basis>
6-311+G(2d) (5D, 7F)

>  <File Format>
g03

$$$$
