/home/yang/projects/t99_calc/v1/qchem_data/combined/log_fchk/frd_903_carbF_OH.log
 OpenBabel05152619573D
Gaussian 16 # opt wb97xd/6-311+g(2d) geom=connectivity freq
 22 21  0  0  1  0  0  0  0  0999 V2000
    3.3898    0.0545   -0.0127 C   0  0  0  0  0  0  0  0  0  0  0  0
    4.3010   -0.9017   -0.1424 F   0  0  0  0  0  0  0  0  0  0  0  0
    3.5735    0.9501   -0.9732 F   0  0  0  0  0  0  0  0  0  0  0  0
    3.5546    0.6435    1.1648 F   0  0  0  0  0  0  0  0  0  0  0  0
    1.9788   -0.5885   -0.1174 C   0  0  0  0  0  0  0  0  0  0  0  0
    1.8791   -1.1545   -1.3259 F   0  0  0  0  0  0  0  0  0  0  0  0
    1.8910   -1.5359    0.8236 F   0  0  0  0  0  0  0  0  0  0  0  0
    0.8876    1.3850   -0.8209 F   0  0  0  0  0  0  0  0  0  0  0  0
    0.8361    0.9279    1.2913 F   0  0  0  0  0  0  0  0  0  0  0  0
    0.7859    0.3938    0.0715 C   0  0  0  0  0  0  0  0  0  0  0  0
   -0.3378   -0.3557   -0.1347 O   0  0  0  0  0  0  0  0  0  0  0  0
   -1.6007   -0.0578    0.3461 C   0  0  1  0  0  0  0  0  0  0  0  0
   -2.0178    1.4746   -1.5092 O   0  0  0  0  0  1  0  0  0  0  0  0
   -2.4601   -1.2767   -0.1129 C   0  0  0  0  0  0  0  0  0  0  0  0
   -1.6281   -0.0302    1.6934 F   0  0  0  0  0  0  0  0  0  0  0  0
   -2.6823   -1.2073   -1.4244 F   0  0  0  0  0  0  0  0  0  0  0  0
   -1.8197   -2.4058    0.1530 F   0  0  0  0  0  0  0  0  0  0  0  0
   -3.6220   -1.2974    0.5197 F   0  0  0  0  0  0  0  0  0  0  0  0
   -3.4966    1.3401    0.1478 F   0  0  0  0  0  0  0  0  0  0  0  0
   -2.1755    1.2955   -0.1875 C   0  0  1  0  0  0  0  0  0  0  0  0
   -1.4887    2.3184    0.4029 O   0  0  0  0  0  0  0  0  0  0  0  0
   -1.8215    3.1524    0.0446 H   0  0  0  0  0  0  0  0  0  0  0  0
  1  4  1  0  0  0  0
  2  1  1  0  0  0  0
  3  1  1  0  0  0  0
  5  1  1  0  0  0  0
  5 10  1  0  0  0  0
  5  7  1  0  0  0  0
  6  5  1  0  0  0  0
  8 10  1  0  0  0  0
 10  9  1  0  0  0  0
 11 10  1  0  0  0  0
 11 12  1  0  0  0  0
 12 15  1  1  0  0  0
 14 17  1  0  0  0  0
 14 12  1  0  0  0  0
 14 18  1  0  0  0  0
 16 14  1  0  0  0  0
 20 13  1  6  0  0  0
 20 19  1  0  0  0  0
 20 12  1  0  0  0  0
 20 21  1  0  0  0  0
 22 21  1  0  0  0  0
M  END
>  <program>
Gaussian 16, Revision A.03

>  <basis>
6-311+G(2d) (5D, 7F)

>  <File Format>
g03

$$$$
