/home/yang/projects/t99_calc/v1/qchem_data/combined/log_fchk/frd_903_0HFAts_prod.log
 OpenBabel05152619573D
Gaussian 16 # opt freq wb97xd/6-311+g(2d) geom=connectivity
 21 20  0  0  1  0  0  0  0  0999 V2000
    3.2171    0.1787    0.1533 C   0  0  0  0  0  0  0  0  0  0  0  0
    4.2433   -0.6502    0.2827 F   0  0  0  0  0  0  0  0  0  0  0  0
    3.4223    0.9558   -0.9014 F   0  0  0  0  0  0  0  0  0  0  0  0
    3.1321    0.9325    1.2394 F   0  0  0  0  0  0  0  0  0  0  0  0
    1.9237   -0.6641   -0.0318 C   0  0  0  0  0  0  0  0  0  0  0  0
    2.0796   -1.4294   -1.1175 F   0  0  0  0  0  0  0  0  0  0  0  0
    1.7794   -1.4427    1.0451 F   0  0  0  0  0  0  0  0  0  0  0  0
    0.7108    0.9497   -1.2875 F   0  0  0  0  0  0  0  0  0  0  0  0
    0.4144    0.9482    0.8475 F   0  0  0  0  0  0  0  0  0  0  0  0
    0.6224    0.1643   -0.2068 C   0  0  0  0  0  0  0  0  0  0  0  0
   -0.3989   -0.7458   -0.3492 O   0  0  0  0  0  0  0  0  0  0  0  0
   -1.6716   -0.2852   -0.4563 C   0  0  1  0  0  0  0  0  0  0  0  0
   -2.0831    0.9835   -1.0461 C   0  0  0  0  0  0  0  0  0  0  0  0
   -2.1729   -0.0572   -1.8431 O   0  0  0  0  0  0  0  0  0  0  0  0
   -2.2732    2.1496   -1.0536 O   0  0  0  0  0  0  0  0  0  0  0  0
   -2.1611    2.8444    0.6514 H   0  0  0  0  0  0  0  0  0  0  0  0
   -2.6232   -1.1272    0.3892 C   0  0  0  0  0  0  0  0  0  0  0  0
   -2.1143    2.8521    1.5821 F   0  0  0  0  0  0  0  0  0  0  0  0
   -2.5885   -2.3957   -0.0034 F   0  0  0  0  0  0  0  0  0  0  0  0
   -2.2579   -1.0592    1.6602 F   0  0  0  0  0  0  0  0  0  0  0  0
   -3.8645   -0.6740    0.2645 F   0  0  0  0  0  0  0  0  0  0  0  0
  1  2  1  0  0  0  0
  1  4  1  0  0  0  0
  3  1  1  0  0  0  0
  5  1  1  0  0  0  0
  5  7  1  0  0  0  0
  6  5  1  0  0  0  0
  8 10  1  0  0  0  0
 10  5  1  0  0  0  0
 10  9  1  0  0  0  0
 11 10  1  0  0  0  0
 12 11  1  1  0  0  0
 12 17  1  0  0  0  0
 13 12  1  0  0  0  0
 14 13  1  0  0  0  0
 14 12  1  0  0  0  0
 15 13  2  0  0  0  0
 16 18  1  0  0  0  0
 17 20  1  0  0  0  0
 19 17  1  0  0  0  0
 21 17  1  0  0  0  0
M  END
>  <program>
Gaussian 16, Revision A.03

>  <basis>
6-311+G(2d) (5D, 7F)

>  <File Format>
g03

$$$$
