/home/yang/projects/t99_calc/v1/qchem_data/combined/log_fchk/frd_c5f11o.log
 OpenBabel05152619573D
Gaussian applications/g16/g16/g16 # opt freq uwb97xd/6-311+g(2d) geom=connectivi
 17 16  0  0  1  0  0  0  0  0999 V2000
    2.9106   -0.0981   -0.1555 C   0  0  0  0  0  0  0  0  0  0  0  0
    3.8095   -0.7134    0.6011 F   0  0  0  0  0  0  0  0  0  0  0  0
    2.9386   -0.6280   -1.3706 F   0  0  0  0  0  0  0  0  0  0  0  0
    3.2257    1.1874   -0.2353 F   0  0  0  0  0  0  0  0  0  0  0  0
    1.5101   -0.2821    0.4936 C   0  0  0  0  0  0  0  0  0  0  0  0
    1.2673   -1.5945    0.5818 F   0  0  0  0  0  0  0  0  0  0  0  0
    1.5554    0.2446    1.7227 F   0  0  0  0  0  0  0  0  0  0  0  0
    0.2465   -0.1260   -1.5087 F   0  0  0  0  0  0  0  0  0  0  0  0
    0.5360    1.6942   -0.3906 F   0  0  0  0  0  0  0  0  0  0  0  0
    0.3350    0.3790   -0.2759 C   0  0  0  0  0  0  0  0  0  0  0  0
   -0.8025    0.1109    0.4451 O   0  0  0  0  0  0  0  0  0  0  0  0
   -1.9684    0.6068   -0.0257 C   0  0  1  0  0  3  0  0  0  0  0  0
   -3.1023   -0.3892   -0.0675 C   0  0  0  0  0  0  0  0  0  0  0  0
   -2.2995    1.7839    0.4684 F   0  0  0  0  0  0  0  0  0  0  0  0
   -2.7338   -1.4594   -0.7628 F   0  0  0  0  0  0  0  0  0  0  0  0
   -3.4550   -0.7924    1.1598 F   0  0  0  0  0  0  0  0  0  0  0  0
   -4.1672    0.1606   -0.6408 F   0  0  0  0  0  0  0  0  0  0  0  0
  1  5  1  0  0  0  0
  1  2  1  0  0  0  0
  3  1  1  0  0  0  0
  4  1  1  0  0  0  0
  5  6  1  0  0  0  0
  5  7  1  0  0  0  0
  8 10  1  0  0  0  0
  9 10  1  0  0  0  0
 10 11  1  0  0  0  0
 10  5  1  0  0  0  0
 12 11  1  0  0  0  0
 12 14  1  1  0  0  0
 13 12  1  0  0  0  0
 13 16  1  0  0  0  0
 15 13  1  0  0  0  0
 17 13  1  0  0  0  0
M  END
>  <program>
Gaussian 16, Revision A.03

>  <basis>
6-311+G(2d) (5D, 7F)

>  <File Format>
g03

$$$$
