Title Card Required
 OpenBabel05152619573D

 23 22  0  0  0  0  0  0  0  0999 V2000
   -3.9115   -0.2498   -0.1390 C   0  0  0  0  0  0  0  0  0  0  0  0
   -4.9298    0.3902    0.4202 F   0  0  0  0  0  0  0  0  0  0  0  0
   -4.0495   -0.1987   -1.4551 F   0  0  0  0  0  0  0  0  0  0  0  0
   -3.9335   -1.5178    0.2536 F   0  0  0  0  0  0  0  0  0  0  0  0
   -2.5864    0.4365    0.3076 C   0  0  0  0  0  0  0  0  0  0  0  0
   -2.5462    1.6482   -0.2637 F   0  0  0  0  0  0  0  0  0  0  0  0
   -2.6296    0.5781    1.6362 F   0  0  0  0  0  0  0  0  0  0  0  0
   -1.3005   -0.3628   -0.0712 C   0  0  0  0  0  0  0  0  0  0  0  0
   -1.4298   -0.8306   -1.3192 F   0  0  0  0  0  0  0  0  0  0  0  0
   -1.1879   -1.3972    0.7721 F   0  0  0  0  0  0  0  0  0  0  0  0
   -0.0000    0.5019    0.0000 C   0  0  0  0  0  0  0  0  0  0  0  0
   -0.0503    1.2780    1.0896 F   0  0  0  0  0  0  0  0  0  0  0  0
    0.0502    1.2780   -1.0895 F   0  0  0  0  0  0  0  0  0  0  0  0
    1.3005   -0.3628    0.0713 C   0  0  0  0  0  0  0  0  0  0  0  0
    2.5864    0.4365   -0.3076 C   0  0  0  0  0  0  0  0  0  0  0  0
    3.9115   -0.2498    0.1390 C   0  0  0  0  0  0  0  0  0  0  0  0
    1.4298   -0.8306    1.3192 F   0  0  0  0  0  0  0  0  0  0  0  0
    1.1878   -1.3972   -0.7721 F   0  0  0  0  0  0  0  0  0  0  0  0
    2.6295    0.5780   -1.6362 F   0  0  0  0  0  0  0  0  0  0  0  0
    3.9335   -1.5178   -0.2536 F   0  0  0  0  0  0  0  0  0  0  0  0
    4.0496   -0.1986    1.4551 F   0  0  0  0  0  0  0  0  0  0  0  0
    2.5462    1.6482    0.2635 F   0  0  0  0  0  0  0  0  0  0  0  0
    4.9298    0.3902   -0.4203 F   0  0  0  0  0  0  0  0  0  0  0  0
  1  2  1  0  0  0  0
  1  3  1  0  0  0  0
  1  4  1  0  0  0  0
  1  5  1  0  0  0  0
  5  6  1  0  0  0  0
  5  7  1  0  0  0  0
  5  8  1  0  0  0  0
  8  9  1  0  0  0  0
  8 10  1  0  0  0  0
  8 11  1  0  0  0  0
 11 12  1  0  0  0  0
 11 13  1  0  0  0  0
 11 14  1  0  0  0  0
 14 15  1  0  0  0  0
 14 17  1  0  0  0  0
 14 18  1  0  0  0  0
 15 16  1  0  0  0  0
 15 19  1  0  0  0  0
 15 22  1  0  0  0  0
 16 20  1  0  0  0  0
 16 21  1  0  0  0  0
 16 23  1  0  0  0  0
M  END
$$$$
