/home/yang/projects/t99_calc/v1/qchem_data/combined/log_fchk/heptane1H.log
 OpenBabel05152619573D
Gaussian 16 # opt freq rwb97xd/6-311+g(2d,2p) geom=connectivity
 23 22  0  0  0  0  0  0  0  0999 V2000
    0.2157    0.5128    0.0655 C   0  0  0  0  0  0  0  0  0  0  0  0
    0.2396    1.1966    1.2169 F   0  0  0  0  0  0  0  0  0  0  0  0
    0.1686    1.3771   -0.9562 F   0  0  0  0  0  0  0  0  0  0  0  0
    1.5283   -0.3268   -0.0566 C   0  0  0  0  0  0  0  0  0  0  0  0
    1.4134   -1.4268    0.7002 F   0  0  0  0  0  0  0  0  0  0  0  0
    1.6780   -0.6917   -1.3361 F   0  0  0  0  0  0  0  0  0  0  0  0
    2.8006    0.4492    0.3983 C   0  0  0  0  0  0  0  0  0  0  0  0
    2.8298    0.4793    1.7421 F   0  0  0  0  0  0  0  0  0  0  0  0
    2.7424    1.7131   -0.0567 F   0  0  0  0  0  0  0  0  0  0  0  0
    4.1441   -0.1504   -0.0674 C   0  0  0  0  0  0  0  0  0  0  0  0
    4.3040    0.0198   -1.3889 F   0  0  0  0  0  0  0  0  0  0  0  0
    4.1783   -1.4661    0.2120 F   0  0  0  0  0  0  0  0  0  0  0  0
    4.9519    0.3558    0.4648 H   0  0  0  0  0  0  0  0  0  0  0  0
   -1.0758   -0.3678    0.0458 C   0  0  0  0  0  0  0  0  0  0  0  0
   -2.3643    0.4471   -0.2882 C   0  0  0  0  0  0  0  0  0  0  0  0
   -2.3902    0.6930   -1.6021 F   0  0  0  0  0  0  0  0  0  0  0  0
   -2.3462    1.6106    0.3772 F   0  0  0  0  0  0  0  0  0  0  0  0
   -1.2203   -0.9360    1.2500 F   0  0  0  0  0  0  0  0  0  0  0  0
   -0.9408   -1.3299   -0.8759 F   0  0  0  0  0  0  0  0  0  0  0  0
   -3.6889   -0.2838    0.0822 C   0  0  0  0  0  0  0  0  0  0  0  0
   -3.8477   -0.3380    1.3961 F   0  0  0  0  0  0  0  0  0  0  0  0
   -3.6934   -1.5170   -0.4094 F   0  0  0  0  0  0  0  0  0  0  0  0
   -4.7055    0.3897   -0.4404 F   0  0  0  0  0  0  0  0  0  0  0  0
  1  2  1  0  0  0  0
  3  1  1  0  0  0  0
  4  1  1  0  0  0  0
  4  7  1  0  0  0  0
  4  5  1  0  0  0  0
  6  4  1  0  0  0  0
  7  8  1  0  0  0  0
  9  7  1  0  0  0  0
 10 12  1  0  0  0  0
 10  7  1  0  0  0  0
 10 13  1  0  0  0  0
 11 10  1  0  0  0  0
 14  1  1  0  0  0  0
 14 18  1  0  0  0  0
 15 14  1  0  0  0  0
 15 20  1  0  0  0  0
 15 17  1  0  0  0  0
 16 15  1  0  0  0  0
 19 14  1  0  0  0  0
 20 21  1  0  0  0  0
 22 20  1  0  0  0  0
 23 20  1  0  0  0  0
M  END
>  <program>
Gaussian 16, Revision A.03

>  <basis>
6-311+G(2d,2p) (5D, 7F)

>  <File Format>
g03

$$$$
