Title Card Required
 OpenBabel05152619573D

 21 20  0  0  0  0  0  0  0  0999 V2000
    1.6779   -0.3086    0.7297 C   0  0  0  0  0  0  0  0  0  0  0  0
    1.5452   -1.3938    1.5095 F   0  0  0  0  0  0  0  0  0  0  0  0
    1.6398    0.7905    1.5044 F   0  0  0  0  0  0  0  0  0  0  0  0
    2.9948   -0.3989    0.0061 C   0  0  0  0  0  0  0  0  0  0  0  0
    3.3381   -1.6298   -0.3702 F   0  0  0  0  0  0  0  0  0  0  0  0
    0.4674   -0.2468   -0.2525 C   0  0  0  0  0  0  0  0  0  0  0  0
   -0.9090    0.0525    0.4203 C   0  0  0  0  0  0  0  0  0  0  0  0
   -2.1254   -0.2992   -0.4924 C   0  0  0  0  0  0  0  0  0  0  0  0
   -3.4674    0.3479   -0.0383 C   0  0  0  0  0  0  0  0  0  0  0  0
    0.4035   -1.4192   -0.9011 F   0  0  0  0  0  0  0  0  0  0  0  0
    0.7135    0.7263   -1.1440 F   0  0  0  0  0  0  0  0  0  0  0  0
   -0.9542    1.3573    0.7227 F   0  0  0  0  0  0  0  0  0  0  0  0
   -1.0205   -0.6557    1.5506 F   0  0  0  0  0  0  0  0  0  0  0  0
   -2.2932   -1.6258   -0.4921 F   0  0  0  0  0  0  0  0  0  0  0  0
   -1.8838    0.1128   -1.7449 F   0  0  0  0  0  0  0  0  0  0  0  0
   -3.4561    1.6558   -0.2480 F   0  0  0  0  0  0  0  0  0  0  0  0
   -3.6860    0.1144    1.2499 F   0  0  0  0  0  0  0  0  0  0  0  0
   -4.4559   -0.1861   -0.7443 F   0  0  0  0  0  0  0  0  0  0  0  0
    4.9245    0.4520   -0.9280 F   0  0  0  0  0  0  0  0  0  0  0  0
    3.7952    0.6122   -0.2971 C   0  0  0  0  0  0  0  0  0  0  0  0
    3.5628    1.8619   -0.0151 F   0  0  0  0  0  0  0  0  0  0  0  0
  1  2  1  0  0  0  0
  1  3  1  0  0  0  0
  1  4  1  0  0  0  0
  1  6  1  0  0  0  0
  4  5  1  0  0  0  0
  4 20  2  0  0  0  0
  6  7  1  0  0  0  0
  6 10  1  0  0  0  0
  6 11  1  0  0  0  0
  7  8  1  0  0  0  0
  7 12  1  0  0  0  0
  7 13  1  0  0  0  0
  8  9  1  0  0  0  0
  8 14  1  0  0  0  0
  8 15  1  0  0  0  0
  9 16  1  0  0  0  0
  9 17  1  0  0  0  0
  9 18  1  0  0  0  0
 19 20  1  0  0  0  0
 20 21  1  0  0  0  0
M  END
$$$$
