/home/yang/projects/t99_calc/v1/qchem_data/combined/log_fchk/hexene.log
 OpenBabel05152619573D
Gaussian applications/g16/g16/g16 # opt freq wb97xd/6-311+g(2d) geom=connectivit
 18 17  0  0  0  0  0  0  0  0999 V2000
    1.0061    0.3618    0.7130 C   0  0  0  0  0  0  0  0  0  0  0  0
    0.7946    1.4946    1.4026 F   0  0  0  0  0  0  0  0  0  0  0  0
    1.0621   -0.6679    1.5765 F   0  0  0  0  0  0  0  0  0  0  0  0
    2.3057    0.4934   -0.0357 C   0  0  0  0  0  0  0  0  0  0  0  0
    2.5554    1.7142   -0.5064 F   0  0  0  0  0  0  0  0  0  0  0  0
    3.1740   -0.4779   -0.2755 C   0  0  0  0  0  0  0  0  0  0  0  0
    4.2824   -0.2855   -0.9336 F   0  0  0  0  0  0  0  0  0  0  0  0
    3.0348   -1.7163    0.1017 F   0  0  0  0  0  0  0  0  0  0  0  0
   -0.2040    0.1253   -0.2414 C   0  0  0  0  0  0  0  0  0  0  0  0
   -1.5523   -0.2002    0.4685 C   0  0  0  0  0  0  0  0  0  0  0  0
   -2.8019   -0.0856   -0.4543 C   0  0  0  0  0  0  0  0  0  0  0  0
    0.1005   -0.9087   -1.0424 F   0  0  0  0  0  0  0  0  0  0  0  0
   -0.3511    1.2236   -0.9984 F   0  0  0  0  0  0  0  0  0  0  0  0
   -1.7396    0.6336    1.4997 F   0  0  0  0  0  0  0  0  0  0  0  0
   -1.5008   -1.4563    0.9274 F   0  0  0  0  0  0  0  0  0  0  0  0
   -3.8520   -0.5781    0.1903 F   0  0  0  0  0  0  0  0  0  0  0  0
   -2.6236   -0.7773   -1.5734 F   0  0  0  0  0  0  0  0  0  0  0  0
   -3.0477    1.1797   -0.7603 F   0  0  0  0  0  0  0  0  0  0  0  0
  1  2  1  0  0  0  0
  1  3  1  0  0  0  0
  4  1  1  0  0  0  0
  5  4  1  0  0  0  0
  6  4  2  0  0  0  0
  6  8  1  0  0  0  0
  7  6  1  0  0  0  0
  9 10  1  0  0  0  0
  9  1  1  0  0  0  0
 10 15  1  0  0  0  0
 10 14  1  0  0  0  0
 11 16  1  0  0  0  0
 11 10  1  0  0  0  0
 12  9  1  0  0  0  0
 13  9  1  0  0  0  0
 17 11  1  0  0  0  0
 18 11  1  0  0  0  0
M  END
>  <program>
Gaussian 16, Revision A.03

>  <basis>
6-311+G(2d) (5D, 7F)

>  <File Format>
g03

$$$$
