/home/yang/projects/t99_calc/v1/qchem_data/combined/log_fchk/hf.log
 OpenBabel05152619573D
Gaussian applications/g16/g16/g16 # opt=calcall wb97xd/6-311+g(2d) geom=connecti
  2  1  0  0  0  0  0  0  0  0999 V2000
    0.0000   -0.0000    0.0921 F   0  0  0  0  0  0  0  0  0  0  0  0
   -0.0000    0.0000   -0.8293 H   0  0  0  0  0  0  0  0  0  0  0  0
  2  1  1  0  0  0  0
M  END
>  <program>
Gaussian 16, Revision A.03

>  <basis>
6-311+G(2d) (5D, 7F)

>  <File Format>
g03

$$$$
