/home/yang/projects/t99_calc/v1/qchem_data/combined/log_fchk/hfp_1oh_1rad_prod.log
 OpenBabel05152619573D
Gaussian applications/g16/g16/g16 # opt freq uwb97xd/6-311+g(2d) geom=connectivi
 11 10  0  0  1  0  0  0  0  0999 V2000
    1.1698    0.1812   -0.1400 C   0  0  0  0  0  0  0  0  0  0  0  0
    2.1662   -0.5044    0.3879 F   0  0  0  0  0  0  0  0  0  0  0  0
    1.1932    1.4257    0.3772 F   0  0  0  0  0  0  0  0  0  0  0  0
   -0.1907   -0.4883    0.1744 C   0  0  0  0  0  0  0  0  0  0  0  0
   -0.1911   -1.6960   -0.4055 F   0  0  0  0  0  0  0  0  0  0  0  0
    1.3521    0.2792   -1.4486 F   0  0  0  0  0  0  0  0  0  0  0  0
   -2.4680   -0.4073   -0.4526 F   0  0  0  0  0  0  0  0  0  0  0  0
   -0.2389   -0.6674    1.5207 F   0  0  0  0  0  0  0  0  0  0  0  0
   -1.3670    0.3167   -0.3340 C   0  0  1  0  0  3  0  0  0  0  0  0
   -1.6441    1.5055    0.2111 O   0  0  0  0  0  0  0  0  0  0  0  0
   -0.8398    2.0300    0.2965 H   0  0  0  0  0  0  0  0  0  0  0  0
  1  4  1  0  0  0  0
  1  3  1  0  0  0  0
  1  2  1  0  0  0  0
  4  8  1  0  0  0  0
  5  4  1  0  0  0  0
  6  1  1  0  0  0  0
  9  7  1  1  0  0  0
  9  4  1  0  0  0  0
  9 10  1  0  0  0  0
 10 11  1  0  0  0  0
M  END
>  <program>
Gaussian 16, Revision A.03

>  <basis>
6-311+G(2d) (5D, 7F)

>  <File Format>
g03

$$$$
