/home/yang/projects/t99_calc/v1/qchem_data/combined/log_fchk/hfp_1oh.log
 OpenBabel05152619573D
Gaussian 16 # opt freq wb97xd/6-311+g(2d) geom=connectivity
 11 10  0  0  1  0  0  0  0  0999 V2000
    1.3278   -0.1454   -0.0244 C   0  0  0  0  0  0  0  0  0  0  0  0
    2.2475    0.4667   -0.7741 F   0  0  0  0  0  0  0  0  0  0  0  0
    1.2142   -1.4070   -0.4314 F   0  0  0  0  0  0  0  0  0  0  0  0
    0.0135    0.5589   -0.1386 C   0  0  2  0  0  3  0  0  0  0  0  0
    0.0578    1.8606    0.0301 F   0  0  0  0  0  0  0  0  0  0  0  0
    1.7881   -0.1542    1.2348 F   0  0  0  0  0  0  0  0  0  0  0  0
   -2.2779    0.8362    0.1351 F   0  0  0  0  0  0  0  0  0  0  0  0
   -1.6356   -0.7849   -1.1399 F   0  0  0  0  0  0  0  0  0  0  0  0
   -1.3245   -0.1120    0.0044 C   0  0  0  0  0  0  0  0  0  0  0  0
   -1.3158   -0.9594    1.0529 O   0  0  0  0  0  0  0  0  0  0  0  0
   -2.1226   -1.4897    1.0366 H   0  0  0  0  0  0  0  0  0  0  0  0
  1  6  1  0  0  0  0
  2  1  1  0  0  0  0
  3  1  1  0  0  0  0
  4  1  1  0  0  0  0
  4  9  1  0  0  0  0
  4  5  1  1  0  0  0
  8  9  1  0  0  0  0
  9  7  1  0  0  0  0
  9 10  1  0  0  0  0
 11 10  1  0  0  0  0
M  END
>  <program>
Gaussian 16, Revision A.03

>  <basis>
6-311+G(2d) (5D, 7F)

>  <File Format>
g03

$$$$
