/home/yang/projects/t99_calc/v1/qchem_data/combined/log_fchk/hfp_1oh_ts.log
 OpenBabel05152619573D
Gaussian 16 # opt=(ts,calcall,noeigentest,maxstep=5) uwb97xd/6-311+g(2d) guess=r
 11  9  0  0  0  0  0  0  0  0999 V2000
    1.2341   -0.0991    0.1315 C   0  0  0  0  0  0  0  0  0  0  0  0
    1.9704    0.2309   -0.9134 F   0  0  0  0  0  0  0  0  0  0  0  0
    1.1620   -1.4270    0.2186 F   0  0  0  0  0  0  0  0  0  0  0  0
   -0.1369    0.5272    0.0543 C   0  0  0  0  0  0  0  0  0  0  0  0
   -0.1240    1.8118   -0.1866 F   0  0  0  0  0  0  0  0  0  0  0  0
    1.8582    0.3477    1.2301 F   0  0  0  0  0  0  0  0  0  0  0  0
   -2.3859    0.6827    0.4539 F   0  0  0  0  0  0  0  0  0  0  0  0
   -0.7952   -0.4896   -1.6516 F   0  0  0  0  0 15  0  0  0  0  0  0
   -1.3514   -0.0815    0.3186 C   0  0  0  0  0  0  0  0  0  0  0  0
   -1.5722   -1.3297    0.5847 O   0  0  0  0  0  0  0  0  0  0  0  0
   -1.0663   -1.8497   -0.0627 H   0  0  0  0  0  0  0  0  0  0  0  0
  1  3  1  0  0  0  0
  1  6  1  0  0  0  0
  2  1  1  0  0  0  0
  4  1  1  0  0  0  0
  4  9  2  0  0  0  0
  5  4  1  0  0  0  0
  9  7  1  0  0  0  0
  9 10  1  0  0  0  0
 11 10  1  0  0  0  0
M  END
>  <program>
Gaussian 16, Revision A.03

>  <basis>
6-311+G(2d) (5D, 7F)

>  <File Format>
g03

$$$$
