/home/yang/projects/t99_calc/v1/qchem_data/combined/log_fchk/hfp_2oh.log
 OpenBabel05152619573D
Gaussian applications/g16/g16/g16 # opt freq uwb97xd/6-311+g(2d) geom=connectivi
 11 10  0  0  1  0  0  0  0  0999 V2000
   -1.1734    0.1935   -0.0499 C   0  0  0  0  0  0  0  0  0  0  0  0
   -1.3083    0.6874   -1.2795 F   0  0  0  0  0  0  0  0  0  0  0  0
   -1.2852    1.1886    0.8214 F   0  0  0  0  0  0  0  0  0  0  0  0
    0.1957   -0.5157    0.0829 C   0  0  1  0  0  0  0  0  0  0  0  0
    0.1808   -1.5817   -0.7781 F   0  0  0  0  0  0  0  0  0  0  0  0
   -2.1518   -0.6742    0.1678 F   0  0  0  0  0  0  0  0  0  0  0  0
    2.5236   -0.2403   -0.2381 F   0  0  0  0  0  0  0  0  0  0  0  0
    1.3893    1.5758    0.1447 F   0  0  0  0  0  0  0  0  0  0  0  0
    1.3514    0.3671   -0.3728 C   0  0  0  0  0  3  0  0  0  0  0  0
    0.3075   -0.9381    1.3742 O   0  0  0  0  0  0  0  0  0  0  0  0
    1.1625   -1.3652    1.4999 H   0  0  0  0  0  0  0  0  0  0  0  0
  1  4  1  0  0  0  0
  1  6  1  0  0  0  0
  1  3  1  0  0  0  0
  2  1  1  0  0  0  0
  4  5  1  6  0  0  0
  4 10  1  0  0  0  0
  9  7  1  0  0  0  0
  9  4  1  0  0  0  0
  9  8  1  0  0  0  0
 10 11  1  0  0  0  0
M  END
>  <program>
Gaussian 16, Revision A.03

>  <basis>
6-311+G(2d) (5D, 7F)

>  <File Format>
g03

$$$$
