/home/yang/projects/t99_calc/v1/qchem_data/combined/log_fchk/hfp_2oh_1rad_prod.log
 OpenBabel05152619573D
Gaussian applications/g16/g16/g16 # opt freq uwb97xd/6-311+g(2d) geom=connectivi
 11 10  0  0  1  0  0  0  0  0999 V2000
    1.1760    0.1828   -0.1365 C   0  0  0  0  0  0  0  0  0  0  0  0
    1.2784    0.4872   -1.4250 F   0  0  0  0  0  0  0  0  0  0  0  0
    2.1729   -0.6229    0.1941 F   0  0  0  0  0  0  0  0  0  0  0  0
   -0.1863   -0.4907    0.1796 C   0  0  2  0  0  0  0  0  0  0  0  0
   -1.5206    1.4901    0.1987 F   0  0  0  0  0  0  0  0  0  0  0  0
    1.2941    1.3121    0.5754 F   0  0  0  0  0  0  0  0  0  0  0  0
   -2.4811   -0.3471   -0.4634 F   0  0  0  0  0  0  0  0  0  0  0  0
   -0.1885   -1.6921   -0.4279 F   0  0  0  0  0  0  0  0  0  0  0  0
   -1.3497    0.3160   -0.3955 C   0  0  0  0  0  3  0  0  0  0  0  0
   -0.3139   -0.7257    1.5299 O   0  0  0  0  0  0  0  0  0  0  0  0
   -0.3260    0.1113    2.0078 H   0  0  0  0  0  0  0  0  0  0  0  0
  1  4  1  0  0  0  0
  1  3  1  0  0  0  0
  1  6  1  0  0  0  0
  2  1  1  0  0  0  0
  4  8  1  6  0  0  0
  4 10  1  0  0  0  0
  7  9  1  0  0  0  0
  9  4  1  0  0  0  0
  9  5  1  0  0  0  0
 10 11  1  0  0  0  0
M  END
>  <program>
Gaussian 16, Revision A.03

>  <basis>
6-311+G(2d) (5D, 7F)

>  <File Format>
g03

$$$$
