/home/yang/projects/t99_calc/v1/qchem_data/combined/log_fchk/hfp_1oh_2nd.log
 OpenBabel05152619573D
Gaussian applications/g16/g16/g16 # opt freq uwb97xd/6-311+g(2d) geom=connectivi
 11 10  0  0  1  0  0  0  0  0999 V2000
    1.3260   -0.1462   -0.0257 C   0  0  0  0  0  0  0  0  0  0  0  0
    2.2473    0.4250   -0.8054 F   0  0  0  0  0  0  0  0  0  0  0  0
    1.2056   -1.4247   -0.3719 F   0  0  0  0  0  0  0  0  0  0  0  0
    0.0138    0.5588   -0.1685 C   0  0  2  0  0  3  0  0  0  0  0  0
    0.0598    1.8580    0.0231 F   0  0  0  0  0  0  0  0  0  0  0  0
    1.7876   -0.0958    1.2316 F   0  0  0  0  0  0  0  0  0  0  0  0
   -2.2893    0.8350   -0.0133 F   0  0  0  0  0  0  0  0  0  0  0  0
   -1.5787   -0.9085   -1.0740 F   0  0  0  0  0  0  0  0  0  0  0  0
   -1.3237   -0.1103   -0.0011 C   0  0  0  0  0  0  0  0  0  0  0  0
   -1.3521   -0.8338    1.1368 O   0  0  0  0  0  0  0  0  0  0  0  0
   -2.1708   -1.3453    1.1657 H   0  0  0  0  0  0  0  0  0  0  0  0
  1  6  1  0  0  0  0
  2  1  1  0  0  0  0
  3  1  1  0  0  0  0
  4  1  1  0  0  0  0
  4  9  1  0  0  0  0
  4  5  1  1  0  0  0
  7  9  1  0  0  0  0
  8  9  1  0  0  0  0
  9 10  1  0  0  0  0
 10 11  1  0  0  0  0
M  END
>  <program>
Gaussian 16, Revision A.03

>  <basis>
6-311+G(2d) (5D, 7F)

>  <File Format>
g03

$$$$
