/home/yang/projects/t99_calc/v1/qchem_data/combined/log_fchk/hfp_1oh_2rad_prod.log
 OpenBabel05152619573D
Gaussian applications/g16/g16/g16 # opt freq uwb97xd/6-311+g(2d) geom=connectivi
 11 10  0  0  1  0  0  0  0  0999 V2000
   -1.3318   -0.1508   -0.0246 C   0  0  0  0  0  0  0  0  0  0  0  0
   -1.7619    0.0578    1.2287 F   0  0  0  0  0  0  0  0  0  0  0  0
   -1.2507   -1.4610   -0.2199 F   0  0  0  0  0  0  0  0  0  0  0  0
   -0.0115    0.5210   -0.2632 C   0  0  1  0  0  3  0  0  0  0  0  0
   -0.0495    1.8264   -0.1050 F   0  0  0  0  0  0  0  0  0  0  0  0
   -2.2579    0.3492   -0.8466 F   0  0  0  0  0  0  0  0  0  0  0  0
    2.2936    0.7952   -0.2808 F   0  0  0  0  0  0  0  0  0  0  0  0
    1.4875   -0.4799    1.2641 F   0  0  0  0  0  0  0  0  0  0  0  0
    1.3291   -0.1237   -0.0491 C   0  0  0  0  0  0  0  0  0  0  0  0
    1.4595   -1.1990   -0.8438 O   0  0  0  0  0  0  0  0  0  0  0  0
    2.2601   -1.6764   -0.5931 H   0  0  0  0  0  0  0  0  0  0  0  0
  1  2  1  0  0  0  0
  3  1  1  0  0  0  0
  4  5  1  1  0  0  0
  4  9  1  0  0  0  0
  4  1  1  0  0  0  0
  6  1  1  0  0  0  0
  7  9  1  0  0  0  0
  9  8  1  0  0  0  0
 10 11  1  0  0  0  0
 10  9  1  0  0  0  0
M  END
>  <program>
Gaussian 16, Revision A.03

>  <basis>
6-311+G(2d) (5D, 7F)

>  <File Format>
g03

$$$$
