/home/yang/projects/t99_calc/v1/qchem_data/combined/log_fchk/hfp_2oh_2rad_prod.log
 OpenBabel05152619573D
Gaussian applications/g16/g16/g16 # opt freq uwb97xd/6-311+g(2d) geom=connectivi
 11 10  0  0  0  0  0  0  0  0999 V2000
   -1.3177   -0.1279   -0.0236 C   0  0  0  0  0  0  0  0  0  0  0  0
   -1.1867   -1.4340   -0.2609 F   0  0  0  0  0  0  0  0  0  0  0  0
   -2.2286    0.3670   -0.8659 F   0  0  0  0  0  0  0  0  0  0  0  0
   -0.0075    0.5665   -0.1840 C   0  0  0  0  0  3  0  0  0  0  0  0
    1.4093   -0.7814    1.1546 F   0  0  0  0  0  0  0  0  0  0  0  0
   -1.8158    0.0135    1.2156 F   0  0  0  0  0  0  0  0  0  0  0  0
    2.2933    0.7598   -0.0800 F   0  0  0  0  0  0  0  0  0  0  0  0
    1.5109   -1.0499   -0.9761 F   0  0  0  0  0  0  0  0  0  0  0  0
    1.2958   -0.1488   -0.0209 C   0  0  0  0  0  0  0  0  0  0  0  0
   -0.0616    1.8904   -0.0310 O   0  0  0  0  0  0  0  0  0  0  0  0
    0.8280    2.2626   -0.0676 H   0  0  0  0  0  0  0  0  0  0  0  0
  1  6  1  0  0  0  0
  2  1  1  0  0  0  0
  3  1  1  0  0  0  0
  4 10  1  0  0  0  0
  4  1  1  0  0  0  0
  4  9  1  0  0  0  0
  7  9  1  0  0  0  0
  8  9  1  0  0  0  0
  9  5  1  0  0  0  0
 11 10  1  0  0  0  0
M  END
>  <program>
Gaussian 16, Revision A.03

>  <basis>
6-311+G(2d) (5D, 7F)

>  <File Format>
g03

$$$$
