/home/yang/projects/t99_calc/v1/qchem_data/combined/log_fchk/hfp_1oh_2rad_scanhf.log
 OpenBabel05152619573D
Gaussian 16 # opt=modredundant uwb97xd/6-311+g(2d) geom=connectivity
 11  9  0  0  1  0  0  0  0  0999 V2000
   -1.5360   -0.4293    0.0050 C   0  0  0  0  0  0  0  0  0  0  0  0
   -2.7397    0.1221    0.0404 F   0  0  0  0  0  0  0  0  0  0  0  0
   -1.3880   -1.2146    1.0665 F   0  0  0  0  0  0  0  0  0  0  0  0
   -0.4831    0.6633    0.0022 C   0  0  2  0  0  3  0  0  0  0  0  0
   -0.8975    1.8920    0.0292 F   0  0  0  0  0  0  0  0  0  0  0  0
   -1.4338   -1.1753   -1.0902 F   0  0  0  0  0  0  0  0  0  0  0  0
    1.6744    1.4714   -0.0255 F   0  0  0  0  0  0  0  0  0  0  0  0
    3.9769   -0.7902    0.0510 F   0  0  0  0  0  0  0  0  0  0  0  0
    0.9270    0.4018   -0.0305 C   0  0  0  0  0  0  0  0  0  0  0  0
    1.3852   -0.7177   -0.0597 O   0  0  0  0  0  0  0  0  0  0  0  0
    2.7394   -0.8225   -0.0258 H   0  0  0  0  0  0  0  0  0  0  0  0
  1  2  1  0  0  0  0
  1  3  1  0  0  0  0
  4  1  1  0  0  0  0
  4  5  1  6  0  0  0
  6  1  1  0  0  0  0
  9  7  1  0  0  0  0
  9  4  1  0  0  0  0
 10  9  2  0  0  0  0
 11  8  1  0  0  0  0
M  END
>  <program>
Gaussian 16, Revision C.02

>  <basis>
6-311+G(2d) (5D, 7F)

>  <File Format>
g03

$$$$
