/home/yang/projects/t99_calc/v1/qchem_data/combined/log_fchk/hfp_1oh_2rad_scan.log
 OpenBabel05152619573D
Gaussian 16 # opt=modredundant uwb97xd/6-311+g(2d) geom=connectivity
 11  9  0  0  0  0  0  0  0  0999 V2000
   -1.1715   -0.1518   -0.2041 C   0  0  0  0  0  0  0  0  0  0  0  0
   -2.0048   -1.1763   -0.3954 F   0  0  0  0  0  0  0  0  0  0  0  0
   -1.0825    0.5354   -1.3369 F   0  0  0  0  0  0  0  0  0  0  0  0
    0.1619   -0.6311    0.2741 C   0  0  0  0  0  0  0  0  0  0  0  0
    0.0938   -1.3591    1.3900 F   0  0  0  0  0  0  0  0  0  0  0  0
   -1.7464    0.6460    0.7165 F   0  0  0  0  0  0  0  0  0  0  0  0
    2.4523   -0.8435    0.2430 F   0  0  0  0  0  0  0  0  0  0  0  0
    1.5515    0.3041   -1.3497 F   0  0  0  0  0  0  0  0  0  0  0  0
    1.3443   -0.3890   -0.2707 C   0  0  0  0  0  0  0  0  0  0  0  0
    0.6201    2.6755    0.8531 O   0  0  0  0  0  1  0  0  0  0  0  0
   -0.3462    2.6685    0.9717 H   0  0  0  0  0  0  0  0  0  0  0  0
  1  4  1  0  0  0  0
  1  6  1  0  0  0  0
  2  1  1  0  0  0  0
  3  1  1  0  0  0  0
  4  5  1  0  0  0  0
  8  9  1  0  0  0  0
  9  7  1  0  0  0  0
  9  4  2  0  0  0  0
 10 11  1  0  0  0  0
M  END
>  <program>
Gaussian 16, Revision C.02

>  <basis>
6-311+G(2d) (5D, 7F)

>  <File Format>
g03

$$$$
