/home/yang/projects/t99_calc/v1/qchem_data/combined/log_fchk/hfpo_da.log
 OpenBabel05152619573D
Gaussian 16 # opt freq wb97xd/6-311+g(2d,2p) geom=connectivity
 21 20  0  0  1  0  0  0  0  0999 V2000
   -3.2381    0.0539   -0.0804 C   0  0  0  0  0  0  0  0  0  0  0  0
   -4.1141   -0.8532   -0.4932 F   0  0  0  0  0  0  0  0  0  0  0  0
   -3.5849    0.4611    1.1324 F   0  0  0  0  0  0  0  0  0  0  0  0
   -3.2720    1.0891   -0.9106 F   0  0  0  0  0  0  0  0  0  0  0  0
   -1.8246   -0.5903   -0.0641 C   0  0  0  0  0  0  0  0  0  0  0  0
   -1.8530   -1.6199    0.7901 F   0  0  0  0  0  0  0  0  0  0  0  0
   -1.5667   -1.0445   -1.2961 F   0  0  0  0  0  0  0  0  0  0  0  0
   -0.9061    0.8580    1.5582 F   0  0  0  0  0  0  0  0  0  0  0  0
   -0.5760    1.3707   -0.5190 F   0  0  0  0  0  0  0  0  0  0  0  0
   -0.6617    0.3549    0.3516 C   0  0  0  0  0  0  0  0  0  0  0  0
    0.4878   -0.3914    0.3823 O   0  0  0  0  0  0  0  0  0  0  0  0
    1.6267    0.0126   -0.2859 C   0  0  1  0  0  0  0  0  0  0  0  0
    2.0606    1.4607    0.0585 C   0  0  0  0  0  0  0  0  0  0  0  0
    1.9533    1.9079    1.1583 O   0  0  0  0  0  0  0  0  0  0  0  0
    2.7239   -0.9919    0.1638 C   0  0  0  0  0  0  0  0  0  0  0  0
    1.4796   -0.1367   -1.6208 F   0  0  0  0  0  0  0  0  0  0  0  0
    2.8840   -0.9643    1.4776 F   0  0  0  0  0  0  0  0  0  0  0  0
    2.3940   -2.2195   -0.2074 F   0  0  0  0  0  0  0  0  0  0  0  0
    3.8777   -0.6643   -0.4151 F   0  0  0  0  0  0  0  0  0  0  0  0
    2.5788    2.0780   -0.9929 O   0  0  0  0  0  0  0  0  0  0  0  0
    2.8571    2.9566   -0.7080 H   0  0  0  0  0  0  0  0  0  0  0  0
  1  5  1  0  0  0  0
  1  3  1  0  0  0  0
  2  1  1  0  0  0  0
  4  1  1  0  0  0  0
  5 10  1  0  0  0  0
  5  6  1  0  0  0  0
  7  5  1  0  0  0  0
  9 10  1  0  0  0  0
 10 11  1  0  0  0  0
 10  8  1  0  0  0  0
 12 16  1  6  0  0  0
 12 13  1  0  0  0  0
 12 15  1  0  0  0  0
 12 11  1  0  0  0  0
 13 14  2  0  0  0  0
 15 17  1  0  0  0  0
 18 15  1  0  0  0  0
 19 15  1  0  0  0  0
 20 21  1  0  0  0  0
 20 13  1  0  0  0  0
M  END
>  <program>
Gaussian 16, Revision A.03

>  <basis>
6-311+G(2d,2p) (5D, 7F)

>  <File Format>
g03

$$$$
