/home/yang/projects/t99_calc/v1/qchem_data/combined/log_fchk/octane1H.log
 OpenBabel05152619573D
Gaussian applications/g16/g16/g16 # opt freq rwb97xd/6-311+g(2d,2p) geom=connect
 26 25  0  0  0  0  0  0  0  0999 V2000
   -0.8539   -0.4602    0.1774 C   0  0  0  0  0  0  0  0  0  0  0  0
   -0.9083   -0.9740    1.4129 F   0  0  0  0  0  0  0  0  0  0  0  0
   -0.7412   -1.4586   -0.7080 F   0  0  0  0  0  0  0  0  0  0  0  0
   -2.1823    0.3109   -0.1127 C   0  0  0  0  0  0  0  0  0  0  0  0
   -2.1282    1.5107    0.4817 F   0  0  0  0  0  0  0  0  0  0  0  0
   -2.2893    0.4843   -1.4360 F   0  0  0  0  0  0  0  0  0  0  0  0
   -3.4506   -0.4331    0.4025 C   0  0  0  0  0  0  0  0  0  0  0  0
   -3.5286   -0.2792    1.7359 F   0  0  0  0  0  0  0  0  0  0  0  0
   -3.3435   -1.7452    0.1286 F   0  0  0  0  0  0  0  0  0  0  0  0
   -4.7910    0.0560   -0.1855 C   0  0  0  0  0  0  0  0  0  0  0  0
   -4.8968   -0.2968   -1.4761 F   0  0  0  0  0  0  0  0  0  0  0  0
   -4.8703    1.3956   -0.0899 F   0  0  0  0  0  0  0  0  0  0  0  0
   -5.6044   -0.3984    0.3836 H   0  0  0  0  0  0  0  0  0  0  0  0
    0.4133    0.4508    0.0793 C   0  0  0  0  0  0  0  0  0  0  0  0
    1.7370   -0.3656   -0.0811 C   0  0  0  0  0  0  0  0  0  0  0  0
    1.8263   -0.7855   -1.3495 F   0  0  0  0  0  0  0  0  0  0  0  0
    1.6984   -1.4318    0.7288 F   0  0  0  0  0  0  0  0  0  0  0  0
    0.4915    1.1902    1.1926 F   0  0  0  0  0  0  0  0  0  0  0  0
    0.2893    1.2617   -0.9787 F   0  0  0  0  0  0  0  0  0  0  0  0
    3.0113    0.4648    0.2691 C   0  0  0  0  0  0  0  0  0  0  0  0
    3.1112    0.5607    1.5989 F   0  0  0  0  0  0  0  0  0  0  0  0
    2.9049    1.6939   -0.2544 F   0  0  0  0  0  0  0  0  0  0  0  0
    4.3373   -0.1573   -0.2612 C   0  0  0  0  0  0  0  0  0  0  0  0
    4.4214   -1.4370    0.0822 F   0  0  0  0  0  0  0  0  0  0  0  0
    5.3579    0.4985    0.2758 F   0  0  0  0  0  0  0  0  0  0  0  0
    4.4139   -0.0541   -1.5794 F   0  0  0  0  0  0  0  0  0  0  0  0
  1  2  1  0  0  0  0
  3  1  1  0  0  0  0
  4  1  1  0  0  0  0
  4  7  1  0  0  0  0
  4  5  1  0  0  0  0
  6  4  1  0  0  0  0
  7  8  1  0  0  0  0
  9  7  1  0  0  0  0
 10 12  1  0  0  0  0
 10 13  1  0  0  0  0
 10  7  1  0  0  0  0
 11 10  1  0  0  0  0
 14  1  1  0  0  0  0
 14 18  1  0  0  0  0
 15 14  1  0  0  0  0
 15 20  1  0  0  0  0
 15 17  1  0  0  0  0
 16 15  1  0  0  0  0
 19 14  1  0  0  0  0
 20 21  1  0  0  0  0
 22 20  1  0  0  0  0
 23 24  1  0  0  0  0
 23 20  1  0  0  0  0
 23 25  1  0  0  0  0
 26 23  1  0  0  0  0
M  END
>  <program>
Gaussian 16, Revision A.03

>  <basis>
6-311+G(2d,2p) (5D, 7F)

>  <File Format>
g03

$$$$
