Title Card Required
 OpenBabel05152619573D

 24 23  0  0  0  0  0  0  0  0999 V2000
    2.3611   -0.2106    0.7501 C   0  0  0  0  0  0  0  0  0  0  0  0
    2.2443   -1.1683    1.6841 F   0  0  0  0  0  0  0  0  0  0  0  0
    2.3896    0.9888    1.3585 F   0  0  0  0  0  0  0  0  0  0  0  0
    3.6358   -0.4443   -0.0160 C   0  0  0  0  0  0  0  0  0  0  0  0
    3.9289   -1.7264   -0.2275 F   0  0  0  0  0  0  0  0  0  0  0  0
    1.1023   -0.2524   -0.1707 C   0  0  0  0  0  0  0  0  0  0  0  0
   -0.2280    0.1870    0.5191 C   0  0  0  0  0  0  0  0  0  0  0  0
   -1.5005   -0.2616   -0.2708 C   0  0  0  0  0  0  0  0  0  0  0  0
   -2.7828    0.5299    0.1359 C   0  0  0  0  0  0  0  0  0  0  0  0
    0.9739   -1.5043   -0.6353 F   0  0  0  0  0  0  0  0  0  0  0  0
    1.3261    0.5716   -1.2064 F   0  0  0  0  0  0  0  0  0  0  0  0
   -0.2270    1.5229    0.6205 F   0  0  0  0  0  0  0  0  0  0  0  0
   -0.2906   -0.3420    1.7464 F   0  0  0  0  0  0  0  0  0  0  0  0
   -1.7021   -1.5658   -0.0424 F   0  0  0  0  0  0  0  0  0  0  0  0
   -1.2959   -0.0768   -1.5817 F   0  0  0  0  0  0  0  0  0  0  0  0
   -2.7377    1.7414   -0.4280 F   0  0  0  0  0  0  0  0  0  0  0  0
   -2.8248    0.6659    1.4684 F   0  0  0  0  0  0  0  0  0  0  0  0
    5.5342    0.2035   -1.1544 F   0  0  0  0  0  0  0  0  0  0  0  0
    4.4435    0.4876   -0.4996 C   0  0  0  0  0  0  0  0  0  0  0  0
    4.2565    1.7714   -0.3897 F   0  0  0  0  0  0  0  0  0  0  0  0
   -4.1126   -0.1492   -0.3078 C   0  0  0  0  0  0  0  0  0  0  0  0
   -4.0658   -0.4676   -1.5958 F   0  0  0  0  0  0  0  0  0  0  0  0
   -5.1101    0.7037   -0.1132 F   0  0  0  0  0  0  0  0  0  0  0  0
   -4.3452   -1.2423    0.4029 F   0  0  0  0  0  0  0  0  0  0  0  0
  1  2  1  0  0  0  0
  1  3  1  0  0  0  0
  1  4  1  0  0  0  0
  1  6  1  0  0  0  0
  4  5  1  0  0  0  0
  4 19  2  0  0  0  0
  6  7  1  0  0  0  0
  6 10  1  0  0  0  0
  6 11  1  0  0  0  0
  7  8  1  0  0  0  0
  7 12  1  0  0  0  0
  7 13  1  0  0  0  0
  8  9  1  0  0  0  0
  8 14  1  0  0  0  0
  8 15  1  0  0  0  0
  9 16  1  0  0  0  0
  9 17  1  0  0  0  0
  9 21  1  0  0  0  0
 18 19  1  0  0  0  0
 19 20  1  0  0  0  0
 21 22  1  0  0  0  0
 21 23  1  0  0  0  0
 21 24  1  0  0  0  0
M  END
$$$$
