c4f8 geom opt
 OpenBabel05152619573D

 15 14  0  0  0  0  0  0  0  0999 V2000
   -2.5924   -0.3784    0.0819 C   0  0  0  0  0  0  0  0  0  0  0  0
   -1.6381    0.5218   -0.1035 C   0  0  0  0  0  0  0  0  0  0  0  0
   -2.4841   -1.6496   -0.1774 F   0  0  0  0  0  0  0  0  0  0  0  0
   -3.7665   -0.0715    0.5575 F   0  0  0  0  0  0  0  0  0  0  0  0
   -1.8732    1.7900    0.2273 F   0  0  0  0  0  0  0  0  0  0  0  0
   -0.2579    0.2541   -0.6428 C   0  0  0  0  0  0  0  0  0  0  0  0
    0.7779    0.0091    0.4909 C   0  0  0  0  0  0  0  0  0  0  0  0
   -0.2678   -0.8269   -1.4413 F   0  0  0  0  0  0  0  0  0  0  0  0
    0.4128   -1.1048    1.1456 F   0  0  0  0  0  0  0  0  0  0  0  0
    0.1388    1.3175   -1.3639 F   0  0  0  0  0  0  0  0  0  0  0  0
    0.7276    1.0458    1.3406 F   0  0  0  0  0  0  0  0  0  0  0  0
    2.2562   -0.1664    0.0481 C   0  0  0  0  0  0  0  0  0  0  0  0
    2.7115    0.9404   -0.5217 F   0  0  0  0  0  0  0  0  0  0  0  0
    2.9939   -0.4262    1.1218 F   0  0  0  0  0  0  0  0  0  0  0  0
    2.3765   -1.1748   -0.8050 F   0  0  0  0  0  0  0  0  0  0  0  0
  1  2  2  0  0  0  0
  1  3  1  0  0  0  0
  1  4  1  0  0  0  0
  2  5  1  0  0  0  0
  2  6  1  0  0  0  0
  6  7  1  0  0  0  0
  6  8  1  0  0  0  0
  6 10  1  0  0  0  0
  7  9  1  0  0  0  0
  7 11  1  0  0  0  0
  7 12  1  0  0  0  0
 12 13  1  0  0  0  0
 12 14  1  0  0  0  0
 12 15  1  0  0  0  0
M  END
$$$$
