/home/yang/projects/t99_calc/v1/qchem_data/combined/log_fchk/pfba.log
 OpenBabel05152619573D
Gaussian applications/g16/g16/g16 # opt wb97xd/6-311+g(2d,2p) geom=connectivity 
 14 13  0  0  0  0  0  0  0  0999 V2000
    1.7833   -0.0766   -0.0479 C   0  0  0  0  0  0  0  0  0  0  0  0
    2.6468    0.8918   -0.3304 F   0  0  0  0  0  0  0  0  0  0  0  0
    2.0042   -0.4985    1.1915 F   0  0  0  0  0  0  0  0  0  0  0  0
    1.9812   -1.0785   -0.8906 F   0  0  0  0  0  0  0  0  0  0  0  0
    0.3392    0.4842   -0.1780 C   0  0  0  0  0  0  0  0  0  0  0  0
    0.2823    1.6318    0.5065 F   0  0  0  0  0  0  0  0  0  0  0  0
    0.1137    0.7423   -1.4785 F   0  0  0  0  0  0  0  0  0  0  0  0
   -0.7836   -0.4641    0.3292 C   0  0  0  0  0  0  0  0  0  0  0  0
   -0.7762   -0.4729    1.6734 F   0  0  0  0  0  0  0  0  0  0  0  0
   -0.5407   -1.7018   -0.1102 F   0  0  0  0  0  0  0  0  0  0  0  0
   -2.1835   -0.0321   -0.1791 C   0  0  0  0  0  0  0  0  0  0  0  0
   -2.8128   -0.6704   -0.9608 O   0  0  0  0  0  0  0  0  0  0  0  0
   -2.5513    1.1146    0.3813 O   0  0  0  0  0  0  0  0  0  0  0  0
   -3.4205    1.3502    0.0359 H   0  0  0  0  0  0  0  0  0  0  0  0
  1  3  1  0  0  0  0
  2  1  1  0  0  0  0
  4  1  1  0  0  0  0
  5  1  1  0  0  0  0
  5  8  1  0  0  0  0
  5  6  1  0  0  0  0
  7  5  1  0  0  0  0
  8  9  1  0  0  0  0
 10  8  1  0  0  0  0
 11  8  1  0  0  0  0
 11 13  1  0  0  0  0
 12 11  2  0  0  0  0
 14 13  1  0  0  0  0
M  END
>  <program>
Gaussian 16, Revision A.03

>  <basis>
6-311+G(2d,2p) (5D, 7F)

>  <File Format>
g03

$$$$
