Title Card Required
 OpenBabel05152619573D

 13 12  0  0  0  0  0  0  0  0999 V2000
    1.7795   -0.0820   -0.0385 C   0  0  0  0  0  0  0  0  0  0  0  0
    0.3367    0.4772   -0.1893 C   0  0  0  0  0  0  0  0  0  0  0  0
   -0.7901   -0.4689    0.3142 C   0  0  0  0  0  0  0  0  0  0  0  0
   -2.1822   -0.0177   -0.1870 C   0  0  0  0  0  0  0  0  0  0  0  0
    0.1186    0.7217   -1.4927 F   0  0  0  0  0  0  0  0  0  0  0  0
    0.2655    1.6285    0.4862 F   0  0  0  0  0  0  0  0  0  0  0  0
    1.9809   -1.0958   -0.8657 F   0  0  0  0  0  0  0  0  0  0  0  0
    1.9860   -0.4875    1.2084 F   0  0  0  0  0  0  0  0  0  0  0  0
    2.6436    0.8821   -0.3264 F   0  0  0  0  0  0  0  0  0  0  0  0
   -2.8559   -0.5964   -0.9496 O   0  0  0  0  0  0  0  0  0  0  0  0
   -0.5665   -1.7043   -0.1374 F   0  0  0  0  0  0  0  0  0  0  0  0
   -0.7930   -0.4850    1.6557 F   0  0  0  0  0  0  0  0  0  0  0  0
   -2.5259    1.1313    0.3832 F   0  0  0  0  0  0  0  0  0  0  0  0
  1  2  1  0  0  0  0
  1  7  1  0  0  0  0
  1  8  1  0  0  0  0
  1  9  1  0  0  0  0
  2  3  1  0  0  0  0
  2  5  1  0  0  0  0
  2  6  1  0  0  0  0
  3  4  1  0  0  0  0
  3 11  1  0  0  0  0
  3 12  1  0  0  0  0
  4 10  2  0  0  0  0
  4 13  1  0  0  0  0
M  END
$$$$
