/home/yang/projects/t99_calc/v1/qchem_data/combined/log_fchk/pfbcof.log
 OpenBabel05152619573D
Gaussian 16 #p opt freq wb97xd/6-311+g(2d,2p) scf=(xqc,tight)
 13 12  0  0  0  0  0  0  0  0999 V2000
    1.7795   -0.0821   -0.0387 C   0  0  0  0  0  0  0  0  0  0  0  0
    0.3367    0.4773   -0.1891 C   0  0  0  0  0  0  0  0  0  0  0  0
   -0.7901   -0.4688    0.3143 C   0  0  0  0  0  0  0  0  0  0  0  0
   -2.1822   -0.0179   -0.1871 C   0  0  0  0  0  0  0  0  0  0  0  0
    0.1185    0.7222   -1.4923 F   0  0  0  0  0  0  0  0  0  0  0  0
    0.2657    1.6284    0.4867 F   0  0  0  0  0  0  0  0  0  0  0  0
    1.9808   -1.0956   -0.8662 F   0  0  0  0  0  0  0  0  0  0  0  0
    1.9863   -0.4880    1.2081 F   0  0  0  0  0  0  0  0  0  0  0  0
   -2.8557   -0.5967   -0.9498 O   0  0  0  0  0  0  0  0  0  0  0  0
   -0.5663   -1.7042   -0.1370 F   0  0  0  0  0  0  0  0  0  0  0  0
   -0.7934   -0.4847    1.6558 F   0  0  0  0  0  0  0  0  0  0  0  0
   -2.5261    1.1313    0.3827 F   0  0  0  0  0  0  0  0  0  0  0  0
    2.6436    0.8821   -0.3263 F   0  0  0  0  0  0  0  0  0  0  0  0
  1  8  1  0  0  0  0
  2  1  1  0  0  0  0
  2  3  1  0  0  0  0
  2  6  1  0  0  0  0
  3 11  1  0  0  0  0
  4  3  1  0  0  0  0
  4 12  1  0  0  0  0
  5  2  1  0  0  0  0
  7  1  1  0  0  0  0
  9  4  2  0  0  0  0
 10  3  1  0  0  0  0
 13  1  1  0  0  0  0
M  END
>  <program>
Gaussian 16, Revision A.03

>  <basis>
6-311+G(2d,2p) (5D, 7F)

>  <File Format>
g03

$$$$
