Title Card Required
 OpenBabel05152619573D

 15 14  0  0  0  0  0  0  0  0999 V2000
    1.9913    0.1165    0.0873 C   0  0  0  0  0  0  0  0  0  0  0  0
    2.1811    1.1297   -0.7489 F   0  0  0  0  0  0  0  0  0  0  0  0
    2.1445    0.5457    1.3315 F   0  0  0  0  0  0  0  0  0  0  0  0
    0.5798   -0.5095   -0.1153 C   0  0  0  0  0  0  0  0  0  0  0  0
    0.5808   -1.1359   -1.2976 F   0  0  0  0  0  0  0  0  0  0  0  0
    0.4019   -1.4141    0.8575 F   0  0  0  0  0  0  0  0  0  0  0  0
   -0.5839    0.5272   -0.0993 C   0  0  0  0  0  0  0  0  0  0  0  0
   -0.5531    1.2026   -1.2541 F   0  0  0  0  0  0  0  0  0  0  0  0
   -0.3928    1.3890    0.9111 F   0  0  0  0  0  0  0  0  0  0  0  0
   -1.9982   -0.0981    0.0698 C   0  0  0  0  0  0  0  0  0  0  0  0
   -2.1270   -0.5952    1.3177 F   0  0  0  0  0  0  0  0  0  0  0  0
   -2.1302   -1.1492   -0.7702 F   0  0  0  0  0  0  0  0  0  0  0  0
   -2.9069    0.8559   -0.1751 O   0  0  0  0  0  0  0  0  0  0  0  0
   -3.7869    0.5096    0.0151 H   0  0  0  0  0  0  0  0  0  0  0  0
    2.9068   -0.8142   -0.1546 F   0  0  0  0  0  0  0  0  0  0  0  0
  1  2  1  0  0  0  0
  1  3  1  0  0  0  0
  1  4  1  0  0  0  0
  1 15  1  0  0  0  0
  4  5  1  0  0  0  0
  4  6  1  0  0  0  0
  4  7  1  0  0  0  0
  7  8  1  0  0  0  0
  7  9  1  0  0  0  0
  7 10  1  0  0  0  0
 10 11  1  0  0  0  0
 10 12  1  0  0  0  0
 10 13  1  0  0  0  0
 13 14  1  0  0  0  0
M  END
$$$$
