Title Card Required
 OpenBabel05152619573D

  9  8  0  0  0  0  0  0  0  0999 V2000
   -0.7798   -0.0184   -0.0000 C   0  0  0  0  0  0  0  0  0  0  0  0
   -1.2365   -0.6408   -1.0795 F   0  0  0  0  0  0  0  0  0  0  0  0
   -1.2362   -0.6387    1.0808 F   0  0  0  0  0  0  0  0  0  0  0  0
    0.7680   -0.0136   -0.0001 C   0  0  0  0  0  0  0  0  0  0  0  0
    1.1971    0.6751    1.0796 F   0  0  0  0  0  0  0  0  0  0  0  0
    1.1976    0.6740   -1.0800 F   0  0  0  0  0  0  0  0  0  0  0  0
    1.2108   -1.2781    0.0006 O   0  0  0  0  0  0  0  0  0  0  0  0
    2.1754   -1.2778    0.0001 H   0  0  0  0  0  0  0  0  0  0  0  0
   -1.2321    1.2299   -0.0013 F   0  0  0  0  0  0  0  0  0  0  0  0
  1  2  1  0  0  0  0
  1  3  1  0  0  0  0
  1  4  1  0  0  0  0
  1  9  1  0  0  0  0
  4  5  1  0  0  0  0
  4  6  1  0  0  0  0
  4  7  1  0  0  0  0
  7  8  1  0  0  0  0
M  END
$$$$
