/home/yang/projects/t99_calc/v1/qchem_data/combined/log_fchk/pfets.log
 OpenBabel05152619573D
Gaussian applications/g16/g16/g16 # opt wb97xd/6-311+g(2d) geom=connectivity scf
 12 11  0  0  0  0  0  0  0  0999 V2000
   -1.4811   -0.2869    0.0110 C   0  0  0  0  0  0  0  0  0  0  0  0
   -1.3475   -1.1942    0.9689 F   0  0  0  0  0  0  0  0  0  0  0  0
   -1.6311   -0.8927   -1.1531 F   0  0  0  0  0  0  0  0  0  0  0  0
   -0.2496    0.6574   -0.0180 C   0  0  0  0  0  0  0  0  0  0  0  0
   -0.2349    1.3822    1.1073 F   0  0  0  0  0  0  0  0  0  0  0  0
   -0.3594    1.4707   -1.0659 F   0  0  0  0  0  0  0  0  0  0  0  0
    1.4030   -0.1926   -0.1545 S   0  0  0  0  0  0  0  0  0  0  0  0
    2.3603    0.8536   -0.2990 O   0  0  0  0  0  1  0  0  0  0  0  0
    1.2664   -1.2792   -1.0551 O   0  0  0  0  0  1  0  0  0  0  0  0
    1.5252   -0.8051    1.3031 O   0  0  0  0  0  0  0  0  0  0  0  0
    1.9645   -0.1574    1.8722 H   0  0  0  0  0  0  0  0  0  0  0  0
   -2.5653    0.4408    0.2594 F   0  0  0  0  0  0  0  0  0  0  0  0
  1 12  1  0  0  0  0
  1  2  1  0  0  0  0
  3  1  1  0  0  0  0
  4  1  1  0  0  0  0
  4  5  1  0  0  0  0
  6  4  1  0  0  0  0
  7  4  1  0  0  0  0
  7 10  1  0  0  0  0
  8  7  1  0  0  0  0
  9  7  1  0  0  0  0
 10 11  1  0  0  0  0
M  END
>  <program>
Gaussian 16, Revision A.03

>  <basis>
6-311+G(2d) (5D, 7F)

>  <File Format>
g03

$$$$
