/home/yang/projects/t99_calc/v1/qchem_data/combined/log_fchk/pfhps.log
 OpenBabel05152619573D
Gaussian 16 # opt wb97xd/6-311+g(2d) geom=connectivity scf=xqc freq
 27 26  0  0  0  0  0  0  0  0999 V2000
   -0.4269    0.4947   -0.1083 C   0  0  0  0  0  0  0  0  0  0  0  0
   -0.4809    1.1799   -1.2579 F   0  0  0  0  0  0  0  0  0  0  0  0
   -0.3146    1.3538    0.9111 F   0  0  0  0  0  0  0  0  0  0  0  0
   -1.7601   -0.3051    0.0662 C   0  0  0  0  0  0  0  0  0  0  0  0
   -1.7136   -1.4002   -0.7068 F   0  0  0  0  0  0  0  0  0  0  0  0
   -1.8728   -0.6734    1.3431 F   0  0  0  0  0  0  0  0  0  0  0  0
   -3.0140    0.5271   -0.3488 C   0  0  0  0  0  0  0  0  0  0  0  0
   -3.1125    0.5302   -1.6792 F   0  0  0  0  0  0  0  0  0  0  0  0
   -2.9023    1.7807    0.0934 F   0  0  0  0  0  0  0  0  0  0  0  0
    0.8356   -0.4276   -0.1423 C   0  0  0  0  0  0  0  0  0  0  0  0
    2.1627    0.3517    0.1336 C   0  0  0  0  0  0  0  0  0  0  0  0
    0.9085   -0.9991   -1.3510 F   0  0  0  0  0  0  0  0  0  0  0  0
    0.7052   -1.3818    0.7870 F   0  0  0  0  0  0  0  0  0  0  0  0
    2.1274    1.5230   -0.5149 F   0  0  0  0  0  0  0  0  0  0  0  0
    2.2515    0.5843    1.4489 F   0  0  0  0  0  0  0  0  0  0  0  0
    3.4333   -0.4253   -0.3327 C   0  0  0  0  0  0  0  0  0  0  0  0
    4.7623    0.1117    0.2767 C   0  0  0  0  0  0  0  0  0  0  0  0
    4.8511    1.4260    0.1128 F   0  0  0  0  0  0  0  0  0  0  0  0
    4.8386   -0.1727    1.5678 F   0  0  0  0  0  0  0  0  0  0  0  0
    3.3219   -1.7154    0.0132 F   0  0  0  0  0  0  0  0  0  0  0  0
    3.5297   -0.3339   -1.6630 F   0  0  0  0  0  0  0  0  0  0  0  0
   -4.6397   -0.1110    0.3219 S   0  0  0  0  0  0  0  0  0  0  0  0
   -5.6491    0.4479   -0.5158 O   0  0  0  0  0  1  0  0  0  0  0  0
   -4.6161    0.0260    1.7319 O   0  0  0  0  0  1  0  0  0  0  0  0
   -4.4951   -1.6571   -0.0107 O   0  0  0  0  0  0  0  0  0  0  0  0
   -4.8897   -1.8205   -0.8791 H   0  0  0  0  0  0  0  0  0  0  0  0
    5.7794   -0.4682   -0.3469 F   0  0  0  0  0  0  0  0  0  0  0  0
  1  4  1  0  0  0  0
  1  3  1  0  0  0  0
  2  1  1  0  0  0  0
  4  6  1  0  0  0  0
  5  4  1  0  0  0  0
  7  4  1  0  0  0  0
  7  9  1  0  0  0  0
  7 22  1  0  0  0  0
  8  7  1  0  0  0  0
 10  1  1  0  0  0  0
 10 11  1  0  0  0  0
 10 13  1  0  0  0  0
 11 15  1  0  0  0  0
 12 10  1  0  0  0  0
 14 11  1  0  0  0  0
 16 20  1  0  0  0  0
 16 11  1  0  0  0  0
 16 17  1  0  0  0  0
 17 19  1  0  0  0  0
 18 17  1  0  0  0  0
 21 16  1  0  0  0  0
 22 24  1  0  0  0  0
 23 22  1  0  0  0  0
 25 22  1  0  0  0  0
 26 25  1  0  0  0  0
 27 17  1  0  0  0  0
M  END
>  <program>
Gaussian 16, Revision A.03

>  <basis>
6-311+G(2d) (5D, 7F)

>  <File Format>
g03

$$$$
