/home/yang/projects/t99_calc/v1/qchem_data/combined/log_fchk/pfhpcof.log
 OpenBabel05152619573D
Gaussian 16 #p opt freq wb97xd/6-311+g(2d,2p) scf=(xqc,tight)
 22 21  0  0  0  0  0  0  0  0999 V2000
    0.2398    0.4980    0.0950 C   0  0  0  0  0  0  0  0  0  0  0  0
    1.5444   -0.3241   -0.1474 C   0  0  0  0  0  0  0  0  0  0  0  0
    2.8353    0.3860    0.3627 C   0  0  0  0  0  0  0  0  0  0  0  0
    4.1047   -0.2204   -0.2812 C   0  0  0  0  0  0  0  0  0  0  0  0
    1.6936   -0.5249   -1.4671 F   0  0  0  0  0  0  0  0  0  0  0  0
    1.4428   -1.5101    0.4635 F   0  0  0  0  0  0  0  0  0  0  0  0
    0.1854    1.4825   -0.8093 F   0  0  0  0  0  0  0  0  0  0  0  0
    0.2911    1.0295    1.3228 F   0  0  0  0  0  0  0  0  0  0  0  0
    4.8318    0.3306   -1.0146 O   0  0  0  0  0  0  0  0  0  0  0  0
    2.7860    1.6804    0.0440 F   0  0  0  0  0  0  0  0  0  0  0  0
    2.9242    0.2609    1.6948 F   0  0  0  0  0  0  0  0  0  0  0  0
    4.2727   -1.4728    0.1285 F   0  0  0  0  0  0  0  0  0  0  0  0
   -1.0558   -0.3692   -0.0157 C   0  0  0  0  0  0  0  0  0  0  0  0
   -2.3463    0.4846   -0.2180 C   0  0  0  0  0  0  0  0  0  0  0  0
   -3.6673   -0.2877    0.0737 C   0  0  0  0  0  0  0  0  0  0  0  0
   -0.9362   -1.2018   -1.0583 F   0  0  0  0  0  0  0  0  0  0  0  0
   -1.1798   -1.0903    1.1056 F   0  0  0  0  0  0  0  0  0  0  0  0
   -2.3115    1.5488    0.5958 F   0  0  0  0  0  0  0  0  0  0  0  0
   -2.3908    0.9026   -1.4869 F   0  0  0  0  0  0  0  0  0  0  0  0
   -4.6895    0.4494   -0.3396 F   0  0  0  0  0  0  0  0  0  0  0  0
   -3.8046   -0.5144    1.3713 F   0  0  0  0  0  0  0  0  0  0  0  0
   -3.6817   -1.4453   -0.5760 F   0  0  0  0  0  0  0  0  0  0  0  0
  1  8  1  0  0  0  0
  2  1  1  0  0  0  0
  2  3  1  0  0  0  0
  2  6  1  0  0  0  0
  3 11  1  0  0  0  0
  4 12  1  0  0  0  0
  4  3  1  0  0  0  0
  5  2  1  0  0  0  0
  7  1  1  0  0  0  0
  9  4  2  0  0  0  0
 10  3  1  0  0  0  0
 13  1  1  0  0  0  0
 13 17  1  0  0  0  0
 14 13  1  0  0  0  0
 14 15  1  0  0  0  0
 14 18  1  0  0  0  0
 15 21  1  0  0  0  0
 16 13  1  0  0  0  0
 19 14  1  0  0  0  0
 20 15  1  0  0  0  0
 22 15  1  0  0  0  0
M  END
>  <program>
Gaussian 16, Revision A.03

>  <basis>
6-311+G(2d,2p) (5D, 7F)

>  <File Format>
g03

$$$$
