/home/yang/projects/t99_calc/v1/qchem_data/combined/log_fchk/pfhpa.log
 OpenBabel05152619573D
Gaussian 16 # opt wb97xd/6-311+g(2d,2p) geom=connectivity
 23 22  0  0  0  0  0  0  0  0999 V2000
    0.2374    0.4963    0.0956 C   0  0  0  0  0  0  0  0  0  0  0  0
    0.2807    1.0398    1.3186 F   0  0  0  0  0  0  0  0  0  0  0  0
    0.1812    1.4727   -0.8182 F   0  0  0  0  0  0  0  0  0  0  0  0
    1.5434   -0.3269   -0.1355 C   0  0  0  0  0  0  0  0  0  0  0  0
    1.4333   -1.5079    0.4858 F   0  0  0  0  0  0  0  0  0  0  0  0
    1.6882   -0.5417   -1.4543 F   0  0  0  0  0  0  0  0  0  0  0  0
    2.8337    0.3861    0.3700 C   0  0  0  0  0  0  0  0  0  0  0  0
    2.9115    0.2698    1.7062 F   0  0  0  0  0  0  0  0  0  0  0  0
    2.7708    1.6810    0.0500 F   0  0  0  0  0  0  0  0  0  0  0  0
    4.1111   -0.2140   -0.2736 C   0  0  0  0  0  0  0  0  0  0  0  0
    4.8032    0.3931   -1.0264 O   0  0  0  0  0  0  0  0  0  0  0  0
    4.3009   -1.4613    0.1422 O   0  0  0  0  0  0  0  0  0  0  0  0
    5.0982   -1.7998   -0.2821 H   0  0  0  0  0  0  0  0  0  0  0  0
   -1.0583   -0.3717   -0.0105 C   0  0  0  0  0  0  0  0  0  0  0  0
   -1.1887   -1.0816    1.1175 F   0  0  0  0  0  0  0  0  0  0  0  0
   -0.9387   -1.2157   -1.0442 F   0  0  0  0  0  0  0  0  0  0  0  0
   -2.3483    0.4799   -0.2257 C   0  0  0  0  0  0  0  0  0  0  0  0
   -2.3909    0.8835   -1.4995 F   0  0  0  0  0  0  0  0  0  0  0  0
   -2.3175    1.5535    0.5759 F   0  0  0  0  0  0  0  0  0  0  0  0
   -3.6702   -0.2888    0.0711 C   0  0  0  0  0  0  0  0  0  0  0  0
   -3.6842   -1.4539   -0.5655 F   0  0  0  0  0  0  0  0  0  0  0  0
   -3.8121   -0.5011    1.3708 F   0  0  0  0  0  0  0  0  0  0  0  0
   -4.6916    0.4437   -0.3533 F   0  0  0  0  0  0  0  0  0  0  0  0
  1  2  1  0  0  0  0
  3  1  1  0  0  0  0
  4  1  1  0  0  0  0
  4  7  1  0  0  0  0
  4  5  1  0  0  0  0
  6  4  1  0  0  0  0
  7  8  1  0  0  0  0
  9  7  1  0  0  0  0
 10 12  1  0  0  0  0
 10  7  1  0  0  0  0
 11 10  2  0  0  0  0
 13 12  1  0  0  0  0
 14  1  1  0  0  0  0
 14 15  1  0  0  0  0
 16 14  1  0  0  0  0
 17 14  1  0  0  0  0
 17 20  1  0  0  0  0
 17 19  1  0  0  0  0
 18 17  1  0  0  0  0
 20 22  1  0  0  0  0
 21 20  1  0  0  0  0
 23 20  1  0  0  0  0
M  END
>  <program>
Gaussian 16, Revision A.03

>  <basis>
6-311+G(2d,2p) (5D, 7F)

>  <File Format>
g03

$$$$
