Title Card Required
 OpenBabel05152619573D

 19 18  0  0  0  0  0  0  0  0999 V2000
    0.4401   -0.3960    0.0896 C   0  0  0  0  0  0  0  0  0  0  0  0
   -0.9135    0.3514   -0.1210 C   0  0  0  0  0  0  0  0  0  0  0  0
   -2.1610   -0.4766    0.3132 C   0  0  0  0  0  0  0  0  0  0  0  0
   -3.4592    0.0901   -0.3089 C   0  0  0  0  0  0  0  0  0  0  0  0
   -1.0547    0.6336   -1.4266 F   0  0  0  0  0  0  0  0  0  0  0  0
   -0.9020    1.4962    0.5711 F   0  0  0  0  0  0  0  0  0  0  0  0
    0.5754   -1.3097   -0.8790 F   0  0  0  0  0  0  0  0  0  0  0  0
    0.4095   -1.0177    1.2755 F   0  0  0  0  0  0  0  0  0  0  0  0
   -4.1363   -0.4518   -1.0950 O   0  0  0  0  0  0  0  0  0  0  0  0
   -2.0213   -1.7385   -0.0959 F   0  0  0  0  0  0  0  0  0  0  0  0
   -2.2756   -0.4543    1.6490 F   0  0  0  0  0  0  0  0  0  0  0  0
   -3.7183    1.2943    0.1887 F   0  0  0  0  0  0  0  0  0  0  0  0
    1.6749    0.5576    0.0673 C   0  0  0  0  0  0  0  0  0  0  0  0
    3.0362   -0.1734   -0.1291 C   0  0  0  0  0  0  0  0  0  0  0  0
    1.5392    1.4384   -0.9340 F   0  0  0  0  0  0  0  0  0  0  0  0
    1.7305    1.2170    1.2286 F   0  0  0  0  0  0  0  0  0  0  0  0
    3.1510   -1.1788    0.7300 F   0  0  0  0  0  0  0  0  0  0  0  0
    3.1475   -0.6398   -1.3635 F   0  0  0  0  0  0  0  0  0  0  0  0
    4.0174    0.6920    0.0887 F   0  0  0  0  0  0  0  0  0  0  0  0
  1  2  1  0  0  0  0
  1  7  1  0  0  0  0
  1  8  1  0  0  0  0
  1 13  1  0  0  0  0
  2  3  1  0  0  0  0
  2  5  1  0  0  0  0
  2  6  1  0  0  0  0
  3  4  1  0  0  0  0
  3 10  1  0  0  0  0
  3 11  1  0  0  0  0
  4  9  2  0  0  0  0
  4 12  1  0  0  0  0
 13 14  1  0  0  0  0
 13 15  1  0  0  0  0
 13 16  1  0  0  0  0
 14 17  1  0  0  0  0
 14 18  1  0  0  0  0
 14 19  1  0  0  0  0
M  END
$$$$
