/home/yang/projects/t99_calc/v1/qchem_data/combined/log_fchk/pfhxoh.log
 OpenBabel05152619573D
Gaussian 16 # opt freq wb97xd/6-311+g(2d) geom=connectivity
 21 20  0  0  0  0  0  0  0  0999 V2000
    0.6682    0.4011    0.0125 C   0  0  0  0  0  0  0  0  0  0  0  0
    0.6419    1.3508   -0.9313 F   0  0  0  0  0  0  0  0  0  0  0  0
    0.7881    0.9844    1.2125 F   0  0  0  0  0  0  0  0  0  0  0  0
   -0.6750   -0.3982   -0.0180 C   0  0  0  0  0  0  0  0  0  0  0  0
   -0.6303   -1.2835   -1.0226 F   0  0  0  0  0  0  0  0  0  0  0  0
   -0.7917   -1.0601    1.1398 F   0  0  0  0  0  0  0  0  0  0  0  0
   -1.9231    0.5180   -0.2236 C   0  0  0  0  0  0  0  0  0  0  0  0
   -1.9772    0.8693   -1.5128 F   0  0  0  0  0  0  0  0  0  0  0  0
   -1.7863    1.6229    0.5249 F   0  0  0  0  0  0  0  0  0  0  0  0
    1.9194   -0.4973   -0.2403 C   0  0  0  0  0  0  0  0  0  0  0  0
    3.2663    0.1601    0.1842 C   0  0  0  0  0  0  0  0  0  0  0  0
    1.9963   -0.7717   -1.5466 F   0  0  0  0  0  0  0  0  0  0  0  0
    1.7984   -1.6435    0.4437 F   0  0  0  0  0  0  0  0  0  0  0  0
    3.3717    1.3807   -0.3272 F   0  0  0  0  0  0  0  0  0  0  0  0
    3.3633    0.2310    1.5033 F   0  0  0  0  0  0  0  0  0  0  0  0
   -3.2743   -0.1522    0.1604 C   0  0  0  0  0  0  0  0  0  0  0  0
   -3.3425   -0.3033    1.4993 F   0  0  0  0  0  0  0  0  0  0  0  0
   -3.3233   -1.3981   -0.3633 F   0  0  0  0  0  0  0  0  0  0  0  0
   -4.2674    0.6226   -0.2970 O   0  0  0  0  0  0  0  0  0  0  0  0
   -5.1098    0.2747    0.0193 H   0  0  0  0  0  0  0  0  0  0  0  0
    4.2647   -0.5839   -0.2747 F   0  0  0  0  0  0  0  0  0  0  0  0
  1  3  1  0  0  0  0
  2  1  1  0  0  0  0
  4  1  1  0  0  0  0
  4  6  1  0  0  0  0
  5  4  1  0  0  0  0
  7  4  1  0  0  0  0
  7 16  1  0  0  0  0
  7  9  1  0  0  0  0
  8  7  1  0  0  0  0
 10  1  1  0  0  0  0
 10 11  1  0  0  0  0
 10 13  1  0  0  0  0
 11 15  1  0  0  0  0
 12 10  1  0  0  0  0
 14 11  1  0  0  0  0
 16 17  1  0  0  0  0
 18 16  1  0  0  0  0
 19 20  1  0  0  0  0
 19 16  1  0  0  0  0
 21 11  1  0  0  0  0
M  END
>  <program>
Gaussian 16, Revision A.03

>  <basis>
6-311+G(2d) (5D, 7F)

>  <File Format>
g03

$$$$
