Title Card Required
 OpenBabel05152619573D

 20 19  0  0  0  0  0  0  0  0999 V2000
    0.4430   -0.3940    0.0915 C   0  0  0  0  0  0  0  0  0  0  0  0
    0.4213   -1.0232    1.2738 F   0  0  0  0  0  0  0  0  0  0  0  0
    0.5790   -1.3018   -0.8833 F   0  0  0  0  0  0  0  0  0  0  0  0
   -0.9122    0.3535   -0.1096 C   0  0  0  0  0  0  0  0  0  0  0  0
   -0.8915    1.4954    0.5891 F   0  0  0  0  0  0  0  0  0  0  0  0
   -1.0503    0.6460   -1.4141 F   0  0  0  0  0  0  0  0  0  0  0  0
   -2.1590   -0.4751    0.3230 C   0  0  0  0  0  0  0  0  0  0  0  0
   -2.2621   -0.4559    1.6624 F   0  0  0  0  0  0  0  0  0  0  0  0
   -2.0059   -1.7382   -0.0823 F   0  0  0  0  0  0  0  0  0  0  0  0
   -3.4645    0.0826   -0.3018 C   0  0  0  0  0  0  0  0  0  0  0  0
   -4.1021   -0.5143   -1.1090 O   0  0  0  0  0  0  0  0  0  0  0  0
   -3.7453    1.2814    0.1968 O   0  0  0  0  0  0  0  0  0  0  0  0
   -4.5574    1.5949   -0.2185 H   0  0  0  0  0  0  0  0  0  0  0  0
    1.6781    0.5596    0.0704 C   0  0  0  0  0  0  0  0  0  0  0  0
    3.0386   -0.1695   -0.1376 C   0  0  0  0  0  0  0  0  0  0  0  0
    1.7412    1.2110    1.2363 F   0  0  0  0  0  0  0  0  0  0  0  0
    1.5407    1.4488   -0.9236 F   0  0  0  0  0  0  0  0  0  0  0  0
    4.0212    0.6948    0.0827 F   0  0  0  0  0  0  0  0  0  0  0  0
    3.1593   -1.1815    0.7130 F   0  0  0  0  0  0  0  0  0  0  0  0
    3.1463   -0.6259   -1.3762 F   0  0  0  0  0  0  0  0  0  0  0  0
  1  2  1  0  0  0  0
  1  3  1  0  0  0  0
  1  4  1  0  0  0  0
  1 14  1  0  0  0  0
  4  5  1  0  0  0  0
  4  6  1  0  0  0  0
  4  7  1  0  0  0  0
  7  8  1  0  0  0  0
  7  9  1  0  0  0  0
  7 10  1  0  0  0  0
 10 11  2  0  0  0  0
 10 12  1  0  0  0  0
 12 13  1  0  0  0  0
 14 15  1  0  0  0  0
 14 16  1  0  0  0  0
 14 17  1  0  0  0  0
 15 18  1  0  0  0  0
 15 19  1  0  0  0  0
 15 20  1  0  0  0  0
M  END
$$$$
