/home/yang/projects/t99_calc/v1/qchem_data/combined/log_fchk/pfoa.log
 OpenBabel05152619573D
Gaussian 16 # opt wb97xd/6-311+g(2d,2p) geom=connectivity
 26 25  0  0  0  0  0  0  0  0999 V2000
    0.8789    0.4418    0.1808 C   0  0  0  0  0  0  0  0  0  0  0  0
    0.9498    0.8612    1.4503 F   0  0  0  0  0  0  0  0  0  0  0  0
    0.7587    1.5021   -0.6275 F   0  0  0  0  0  0  0  0  0  0  0  0
    2.2014   -0.3077   -0.1756 C   0  0  0  0  0  0  0  0  0  0  0  0
    2.1501   -1.5494    0.3229 F   0  0  0  0  0  0  0  0  0  0  0  0
    2.3074   -0.3809   -1.5132 F   0  0  0  0  0  0  0  0  0  0  0  0
    3.4851    0.3939    0.3613 C   0  0  0  0  0  0  0  0  0  0  0  0
    3.6099    0.1466    1.6759 F   0  0  0  0  0  0  0  0  0  0  0  0
    3.3720    1.7116    0.1764 F   0  0  0  0  0  0  0  0  0  0  0  0
    4.7585   -0.0944   -0.3774 C   0  0  0  0  0  0  0  0  0  0  0  0
    5.4041    0.6077   -1.0877 O   0  0  0  0  0  0  0  0  0  0  0  0
    5.0034   -1.3686   -0.0923 O   0  0  0  0  0  0  0  0  0  0  0  0
    5.7964   -1.6352   -0.5717 H   0  0  0  0  0  0  0  0  0  0  0  0
   -0.3913   -0.4572    0.0285 C   0  0  0  0  0  0  0  0  0  0  0  0
   -1.7148    0.3703   -0.0587 C   0  0  0  0  0  0  0  0  0  0  0  0
   -0.4605   -1.2782    1.0837 F   0  0  0  0  0  0  0  0  0  0  0  0
   -0.2776   -1.1872   -1.0887 F   0  0  0  0  0  0  0  0  0  0  0  0
   -1.6660    1.3739    0.8268 F   0  0  0  0  0  0  0  0  0  0  0  0
   -1.8153    0.8821   -1.2920 F   0  0  0  0  0  0  0  0  0  0  0  0
   -2.9875   -0.4817    0.2419 C   0  0  0  0  0  0  0  0  0  0  0  0
   -4.3171    0.1794   -0.2289 C   0  0  0  0  0  0  0  0  0  0  0  0
   -4.3949    1.4307    0.2076 F   0  0  0  0  0  0  0  0  0  0  0  0
   -4.4064    0.1725   -1.5504 F   0  0  0  0  0  0  0  0  0  0  0  0
   -5.3340   -0.5123    0.2686 F   0  0  0  0  0  0  0  0  0  0  0  0
   -2.8885   -1.6695   -0.3712 F   0  0  0  0  0  0  0  0  0  0  0  0
   -3.0753   -0.6747    1.5619 F   0  0  0  0  0  0  0  0  0  0  0  0
  1  2  1  0  0  0  0
  3  1  1  0  0  0  0
  4  1  1  0  0  0  0
  4  5  1  0  0  0  0
  4  7  1  0  0  0  0
  6  4  1  0  0  0  0
  7  8  1  0  0  0  0
  9  7  1  0  0  0  0
 10 12  1  0  0  0  0
 10  7  1  0  0  0  0
 11 10  2  0  0  0  0
 13 12  1  0  0  0  0
 14  1  1  0  0  0  0
 14 16  1  0  0  0  0
 15 14  1  0  0  0  0
 15 20  1  0  0  0  0
 15 18  1  0  0  0  0
 17 14  1  0  0  0  0
 19 15  1  0  0  0  0
 20 26  1  0  0  0  0
 21 22  1  0  0  0  0
 21 20  1  0  0  0  0
 21 24  1  0  0  0  0
 23 21  1  0  0  0  0
 25 20  1  0  0  0  0
M  END
>  <program>
Gaussian 16, Revision A.03

>  <basis>
6-311+G(2d,2p) (5D, 7F)

>  <File Format>
g03

$$$$
