Title Card Required
 OpenBabel05152619573D

 30 29  0  0  0  0  0  0  0  0999 V2000
    1.0827   -0.5086   -0.1464 C   0  0  0  0  0  0  0  0  0  0  0  0
    1.1239   -1.0438   -1.3736 F   0  0  0  0  0  0  0  0  0  0  0  0
    1.0137   -1.4903    0.7598 F   0  0  0  0  0  0  0  0  0  0  0  0
    2.4020    0.2957    0.0984 C   0  0  0  0  0  0  0  0  0  0  0  0
    2.3147    1.4757   -0.5333 F   0  0  0  0  0  0  0  0  0  0  0  0
    2.5353    0.5079    1.4085 F   0  0  0  0  0  0  0  0  0  0  0  0
    3.6639   -0.4491   -0.4398 C   0  0  0  0  0  0  0  0  0  0  0  0
    3.7346   -0.2855   -1.7615 F   0  0  0  0  0  0  0  0  0  0  0  0
    3.5877   -1.7501   -0.1547 F   0  0  0  0  0  0  0  0  0  0  0  0
   -0.2000    0.3796   -0.0377 C   0  0  0  0  0  0  0  0  0  0  0  0
   -1.5022   -0.4614    0.1691 C   0  0  0  0  0  0  0  0  0  0  0  0
   -0.3162    1.0933   -1.1648 F   0  0  0  0  0  0  0  0  0  0  0  0
   -0.0658    1.2149    0.9993 F   0  0  0  0  0  0  0  0  0  0  0  0
   -1.4543   -1.5406   -0.6219 F   0  0  0  0  0  0  0  0  0  0  0  0
   -1.5532   -0.8548    1.4471 F   0  0  0  0  0  0  0  0  0  0  0  0
   -2.8009    0.3402   -0.1701 C   0  0  0  0  0  0  0  0  0  0  0  0
   -4.0873   -0.2969    0.4425 C   0  0  0  0  0  0  0  0  0  0  0  0
   -4.0501   -1.6266    0.2796 F   0  0  0  0  0  0  0  0  0  0  0  0
   -4.1270   -0.0147    1.7484 F   0  0  0  0  0  0  0  0  0  0  0  0
   -2.6846    1.5870    0.3051 F   0  0  0  0  0  0  0  0  0  0  0  0
   -2.9309    0.3923   -1.5018 F   0  0  0  0  0  0  0  0  0  0  0  0
    5.2901    0.1366    0.2778 S   0  0  0  0  0  0  0  0  0  0  0  0
    6.2931   -0.2852   -0.6434 O   0  0  0  0  0  1  0  0  0  0  0  0
    5.2989   -0.1832    1.6581 O   0  0  0  0  0  1  0  0  0  0  0  0
    5.1080    1.7093    0.1535 O   0  0  0  0  0  0  0  0  0  0  0  0
    5.4823    2.0032   -0.6856 H   0  0  0  0  0  0  0  0  0  0  0  0
   -5.4126    0.2176   -0.1941 C   0  0  0  0  0  0  0  0  0  0  0  0
   -6.4304   -0.2133    0.5391 F   0  0  0  0  0  0  0  0  0  0  0  0
   -5.5537   -0.2426   -1.4279 F   0  0  0  0  0  0  0  0  0  0  0  0
   -5.4322    1.5448   -0.2181 F   0  0  0  0  0  0  0  0  0  0  0  0
  1  2  1  0  0  0  0
  1  3  1  0  0  0  0
  1  4  1  0  0  0  0
  1 10  1  0  0  0  0
  4  5  1  0  0  0  0
  4  6  1  0  0  0  0
  4  7  1  0  0  0  0
  7  8  1  0  0  0  0
  7  9  1  0  0  0  0
  7 22  1  0  0  0  0
 10 11  1  0  0  0  0
 10 12  1  0  0  0  0
 10 13  1  0  0  0  0
 11 14  1  0  0  0  0
 11 15  1  0  0  0  0
 11 16  1  0  0  0  0
 16 17  1  0  0  0  0
 16 20  1  0  0  0  0
 16 21  1  0  0  0  0
 17 18  1  0  0  0  0
 17 19  1  0  0  0  0
 17 27  1  0  0  0  0
 22 23  1  0  0  0  0
 22 24  1  0  0  0  0
 22 25  1  0  0  0  0
 25 26  1  0  0  0  0
 27 28  1  0  0  0  0
 27 29  1  0  0  0  0
 27 30  1  0  0  0  0
M  END
$$$$
