/home/yang/projects/t99_calc/v1/qchem_data/combined/log_fchk/pfpal.log
 OpenBabel05152619573D
Gaussian 16 #p opt freq rwb97xd/6-311+g(2d,2p) integral=grid=superfinegrid scf=(
 10  9  0  0  0  0  0  0  0  0999 V2000
   -1.0802   -0.2553   -0.1999 C   0  0  0  0  0  0  0  0  0  0  0  0
    0.1685    0.5109    0.3112 C   0  0  0  0  0  0  0  0  0  0  0  0
    1.4946   -0.1136   -0.1754 C   0  0  0  0  0  0  0  0  0  0  0  0
   -1.0385   -0.3324   -1.5266 F   0  0  0  0  0  0  0  0  0  0  0  0
   -1.1077   -1.4831    0.3013 F   0  0  0  0  0  0  0  0  0  0  0  0
    2.1932    0.3269   -1.0056 O   0  0  0  0  0  0  0  0  0  0  0  0
    0.0999    1.7637   -0.1391 F   0  0  0  0  0  0  0  0  0  0  0  0
    0.1412    0.5196    1.6531 F   0  0  0  0  0  0  0  0  0  0  0  0
    1.7459   -1.2387    0.4833 F   0  0  0  0  0  0  0  0  0  0  0  0
   -2.1788    0.3857    0.1647 F   0  0  0  0  0  0  0  0  0  0  0  0
  1 10  1  0  0  0  0
  1  5  1  0  0  0  0
  1  2  1  0  0  0  0
  2  8  1  0  0  0  0
  3  2  1  0  0  0  0
  3  9  1  0  0  0  0
  4  1  1  0  0  0  0
  6  3  2  0  0  0  0
  7  2  1  0  0  0  0
M  END
>  <program>
Gaussian 16, Revision A.03

>  <basis>
6-311+G(2d,2p) (5D, 7F)

>  <File Format>
g03

$$$$
