/home/yang/projects/t99_calc/v1/qchem_data/combined/log_fchk/pfpes.log
 OpenBabel05152619573D
Gaussian 16 # opt wb97xd/6-311+g(2d) geom=connectivity scf=xqc freq
 21 20  0  0  0  0  0  0  0  0999 V2000
    0.8821    0.4191    0.0046 C   0  0  0  0  0  0  0  0  0  0  0  0
    0.8749    1.3471   -0.9620 F   0  0  0  0  0  0  0  0  0  0  0  0
    1.0083    1.0263    1.1903 F   0  0  0  0  0  0  0  0  0  0  0  0
   -0.4811   -0.3469   -0.0145 C   0  0  0  0  0  0  0  0  0  0  0  0
   -0.4622   -1.2413   -1.0136 F   0  0  0  0  0  0  0  0  0  0  0  0
   -0.6240   -0.9887    1.1461 F   0  0  0  0  0  0  0  0  0  0  0  0
   -1.6983    0.6041   -0.2388 C   0  0  0  0  0  0  0  0  0  0  0  0
   -1.7758    0.9115   -1.5347 F   0  0  0  0  0  0  0  0  0  0  0  0
   -1.5491    1.7203    0.4764 F   0  0  0  0  0  0  0  0  0  0  0  0
    2.1115   -0.5142   -0.2255 C   0  0  0  0  0  0  0  0  0  0  0  0
    3.4729    0.1206    0.1868 C   0  0  0  0  0  0  0  0  0  0  0  0
    2.1819   -0.8189   -1.5257 F   0  0  0  0  0  0  0  0  0  0  0  0
    1.9590   -1.6412    0.4827 F   0  0  0  0  0  0  0  0  0  0  0  0
    3.6056    1.3260   -0.3532 F   0  0  0  0  0  0  0  0  0  0  0  0
    3.5676    0.2198    1.5038 F   0  0  0  0  0  0  0  0  0  0  0  0
   -3.3557   -0.1065    0.2586 S   0  0  0  0  0  0  0  0  0  0  0  0
   -4.3315    0.6690   -0.4336 O   0  0  0  0  0  1  0  0  0  0  0  0
   -3.3468   -0.2976    1.6625 O   0  0  0  0  0  1  0  0  0  0  0  0
   -3.2638   -1.5395   -0.4194 O   0  0  0  0  0  0  0  0  0  0  0  0
   -3.6513   -1.4836   -1.3045 H   0  0  0  0  0  0  0  0  0  0  0  0
    4.4534   -0.6570   -0.2529 F   0  0  0  0  0  0  0  0  0  0  0  0
  1  3  1  0  0  0  0
  2  1  1  0  0  0  0
  4  1  1  0  0  0  0
  4  6  1  0  0  0  0
  5  4  1  0  0  0  0
  7  4  1  0  0  0  0
  7 16  1  0  0  0  0
  7  9  1  0  0  0  0
  8  7  1  0  0  0  0
 10  1  1  0  0  0  0
 10 11  1  0  0  0  0
 10 13  1  0  0  0  0
 11 15  1  0  0  0  0
 12 10  1  0  0  0  0
 14 11  1  0  0  0  0
 16 18  1  0  0  0  0
 17 16  1  0  0  0  0
 19 16  1  0  0  0  0
 20 19  1  0  0  0  0
 21 11  1  0  0  0  0
M  END
>  <program>
Gaussian 16, Revision C.02

>  <basis>
6-311+G(2d) (5D, 7F)

>  <File Format>
g03

$$$$
