/home/yang/projects/t99_calc/v1/qchem_data/combined/log_fchk/pfpnal.log
 OpenBabel05152619573D
Gaussian 16 #p opt freq rwb97xd/6-311+g(2d,2p) integral=grid=superfinegrid scf=(
 16 15  0  0  0  0  0  0  0  0999 V2000
   -1.0659    0.5391   -0.0250 C   0  0  0  0  0  0  0  0  0  0  0  0
    0.2365   -0.3114   -0.1122 C   0  0  0  0  0  0  0  0  0  0  0  0
    1.5252    0.4660    0.2924 C   0  0  0  0  0  0  0  0  0  0  0  0
    2.7997   -0.2423   -0.2245 C   0  0  0  0  0  0  0  0  0  0  0  0
    0.3964   -0.7259   -1.3801 F   0  0  0  0  0  0  0  0  0  0  0  0
    0.1209   -1.3842    0.6796 F   0  0  0  0  0  0  0  0  0  0  0  0
   -1.1063    1.3733   -1.0681 F   0  0  0  0  0  0  0  0  0  0  0  0
   -1.0519    1.2512    1.1102 F   0  0  0  0  0  0  0  0  0  0  0  0
    3.5386    0.1770   -1.0297 O   0  0  0  0  0  0  0  0  0  0  0  0
    1.4886    1.6910   -0.2339 F   0  0  0  0  0  0  0  0  0  0  0  0
    1.5938    0.5602    1.6284 F   0  0  0  0  0  0  0  0  0  0  0  0
    2.9568   -1.4094    0.3903 F   0  0  0  0  0  0  0  0  0  0  0  0
   -2.3761   -0.3027   -0.0388 C   0  0  0  0  0  0  0  0  0  0  0  0
   -2.3660   -1.1571   -1.0551 F   0  0  0  0  0  0  0  0  0  0  0  0
   -2.5168   -0.9742    1.0941 F   0  0  0  0  0  0  0  0  0  0  0  0
   -3.4073    0.5187   -0.1779 F   0  0  0  0  0  0  0  0  0  0  0  0
  1  8  1  0  0  0  0
  2  1  1  0  0  0  0
  2  3  1  0  0  0  0
  2  6  1  0  0  0  0
  3 11  1  0  0  0  0
  4  3  1  0  0  0  0
  4 12  1  0  0  0  0
  5  2  1  0  0  0  0
  7  1  1  0  0  0  0
  9  4  2  0  0  0  0
 10  3  1  0  0  0  0
 13  1  1  0  0  0  0
 13 15  1  0  0  0  0
 14 13  1  0  0  0  0
 16 13  1  0  0  0  0
M  END
>  <program>
Gaussian 16, Revision A.03

>  <basis>
6-311+G(2d,2p) (5D, 7F)

>  <File Format>
g03

$$$$
