Title Card Required
 OpenBabel05152619573D

 17 16  0  0  0  0  0  0  0  0999 V2000
   -1.0712    0.5349   -0.0258 C   0  0  0  0  0  0  0  0  0  0  0  0
   -1.0681    1.2519    1.1067 F   0  0  0  0  0  0  0  0  0  0  0  0
   -1.1131    1.3655   -1.0723 F   0  0  0  0  0  0  0  0  0  0  0  0
    0.2345   -0.3114   -0.1042 C   0  0  0  0  0  0  0  0  0  0  0  0
    0.1122   -1.3816    0.6919 F   0  0  0  0  0  0  0  0  0  0  0  0
    0.3924   -0.7337   -1.3707 F   0  0  0  0  0  0  0  0  0  0  0  0
    1.5206    0.4686    0.3004 C   0  0  0  0  0  0  0  0  0  0  0  0
    1.5729    0.5718    1.6391 F   0  0  0  0  0  0  0  0  0  0  0  0
    1.4716    1.6942   -0.2272 F   0  0  0  0  0  0  0  0  0  0  0  0
    2.8054   -0.2324   -0.2127 C   0  0  0  0  0  0  0  0  0  0  0  0
    3.5119    0.2395   -1.0449 O   0  0  0  0  0  0  0  0  0  0  0  0
    2.9836   -1.3930    0.4086 O   0  0  0  0  0  0  0  0  0  0  0  0
    3.7863   -1.7983    0.0600 H   0  0  0  0  0  0  0  0  0  0  0  0
   -2.3788   -0.3107   -0.0422 C   0  0  0  0  0  0  0  0  0  0  0  0
   -2.5278   -0.9749    1.0943 F   0  0  0  0  0  0  0  0  0  0  0  0
   -2.3617   -1.1733   -1.0520 F   0  0  0  0  0  0  0  0  0  0  0  0
   -3.4132    0.5060   -0.1945 F   0  0  0  0  0  0  0  0  0  0  0  0
  1  2  1  0  0  0  0
  1  3  1  0  0  0  0
  1  4  1  0  0  0  0
  1 14  1  0  0  0  0
  4  5  1  0  0  0  0
  4  6  1  0  0  0  0
  4  7  1  0  0  0  0
  7  8  1  0  0  0  0
  7  9  1  0  0  0  0
  7 10  1  0  0  0  0
 10 11  2  0  0  0  0
 10 12  1  0  0  0  0
 12 13  1  0  0  0  0
 14 15  1  0  0  0  0
 14 16  1  0  0  0  0
 14 17  1  0  0  0  0
M  END
$$$$
