Title Card Required
 OpenBabel05152619573D

 16 15  0  0  0  0  0  0  0  0999 V2000
   -1.0664    0.5396   -0.0225 C   0  0  0  0  0  0  0  0  0  0  0  0
    0.2364   -0.3095   -0.1140 C   0  0  0  0  0  0  0  0  0  0  0  0
    1.5254    0.4674    0.2896 C   0  0  0  0  0  0  0  0  0  0  0  0
    2.7997   -0.2449   -0.2224 C   0  0  0  0  0  0  0  0  0  0  0  0
    0.3940   -0.7215   -1.3830 F   0  0  0  0  0  0  0  0  0  0  0  0
    0.1232   -1.3839    0.6760 F   0  0  0  0  0  0  0  0  0  0  0  0
   -1.1081    1.3782   -1.0620 F   0  0  0  0  0  0  0  0  0  0  0  0
   -1.0517    1.2472    1.1156 F   0  0  0  0  0  0  0  0  0  0  0  0
    3.5407    0.1703   -1.0278 O   0  0  0  0  0  0  0  0  0  0  0  0
    1.4914    1.6905   -0.2412 F   0  0  0  0  0  0  0  0  0  0  0  0
    1.5918    0.5664    1.6254 F   0  0  0  0  0  0  0  0  0  0  0  0
    2.9538   -1.4100    0.3970 F   0  0  0  0  0  0  0  0  0  0  0  0
   -2.3756   -0.3037   -0.0389 C   0  0  0  0  0  0  0  0  0  0  0  0
   -2.3633   -1.1561   -1.0568 F   0  0  0  0  0  0  0  0  0  0  0  0
   -2.5166   -0.9778    1.0923 F   0  0  0  0  0  0  0  0  0  0  0  0
   -3.4082    0.5164   -0.1775 F   0  0  0  0  0  0  0  0  0  0  0  0
  1  2  1  0  0  0  0
  1  7  1  0  0  0  0
  1  8  1  0  0  0  0
  1 13  1  0  0  0  0
  2  3  1  0  0  0  0
  2  5  1  0  0  0  0
  2  6  1  0  0  0  0
  3  4  1  0  0  0  0
  3 10  1  0  0  0  0
  3 11  1  0  0  0  0
  4  9  2  0  0  0  0
  4 12  1  0  0  0  0
 13 14  1  0  0  0  0
 13 15  1  0  0  0  0
 13 16  1  0  0  0  0
M  END
$$$$
