Title Card Required
 OpenBabel05152619573D

 12 11  0  0  0  0  0  0  0  0999 V2000
   -1.3087   -0.2372    0.0000 C   0  0  0  0  0  0  0  0  0  0  0  0
   -2.3440    0.5949   -0.0001 F   0  0  0  0  0  0  0  0  0  0  0  0
   -1.3817   -1.0040   -1.0799 F   0  0  0  0  0  0  0  0  0  0  0  0
   -1.3818   -1.0038    1.0800 F   0  0  0  0  0  0  0  0  0  0  0  0
   -0.0008    0.6021   -0.0000 C   0  0  0  0  0  0  0  0  0  0  0  0
   -0.0197    1.3785   -1.0915 F   0  0  0  0  0  0  0  0  0  0  0  0
   -0.0198    1.3787    1.0913 F   0  0  0  0  0  0  0  0  0  0  0  0
    1.3520   -1.0236   -1.0791 F   0  0  0  0  0  0  0  0  0  0  0  0
    1.3520   -1.0235    1.0792 F   0  0  0  0  0  0  0  0  0  0  0  0
    1.3209   -0.2112    0.0000 C   0  0  0  0  0  0  0  0  0  0  0  0
    2.3431    0.6548   -0.0000 O   0  0  0  0  0  0  0  0  0  0  0  0
    3.1739    0.1645    0.0001 H   0  0  0  0  0  0  0  0  0  0  0  0
  1  2  1  0  0  0  0
  1  3  1  0  0  0  0
  1  4  1  0  0  0  0
  1  5  1  0  0  0  0
  5  6  1  0  0  0  0
  5  7  1  0  0  0  0
  5 10  1  0  0  0  0
  8 10  1  0  0  0  0
  9 10  1  0  0  0  0
 10 11  1  0  0  0  0
 11 12  1  0  0  0  0
M  END
$$$$
