Title Card Required
 OpenBabel05152619573D

 10  9  0  0  0  0  0  0  0  0999 V2000
   -1.0803   -0.2556   -0.1993 C   0  0  0  0  0  0  0  0  0  0  0  0
    0.1686    0.5117    0.3106 C   0  0  0  0  0  0  0  0  0  0  0  0
    1.4946   -0.1141   -0.1750 C   0  0  0  0  0  0  0  0  0  0  0  0
   -1.0365   -0.3390   -1.5255 F   0  0  0  0  0  0  0  0  0  0  0  0
   -1.1097   -1.4813    0.3069 F   0  0  0  0  0  0  0  0  0  0  0  0
    2.1933    0.3246   -1.0060 O   0  0  0  0  0  0  0  0  0  0  0  0
    0.1002    1.7634   -0.1430 F   0  0  0  0  0  0  0  0  0  0  0  0
    0.1409    0.5241    1.6521 F   0  0  0  0  0  0  0  0  0  0  0  0
    1.7458   -1.2382    0.4857 F   0  0  0  0  0  0  0  0  0  0  0  0
   -2.1790    0.3878    0.1605 F   0  0  0  0  0  0  0  0  0  0  0  0
  1  2  1  0  0  0  0
  1  4  1  0  0  0  0
  1  5  1  0  0  0  0
  1 10  1  0  0  0  0
  2  3  1  0  0  0  0
  2  7  1  0  0  0  0
  2  8  1  0  0  0  0
  3  6  2  0  0  0  0
  3  9  1  0  0  0  0
M  END
$$$$
