Title Card Required
 OpenBabel05152619573D

  9  8  0  0  0  0  0  0  0  0999 V2000
   -0.2585    0.5240    0.0000 C   0  0  0  0  0  0  0  0  0  0  0  0
   -1.3862   -0.1661   -0.0000 C   0  0  0  0  0  0  0  0  0  0  0  0
   -0.2898    1.8526    0.0000 F   0  0  0  0  0  0  0  0  0  0  0  0
   -1.4324   -1.4703   -0.0000 F   0  0  0  0  0  0  0  0  0  0  0  0
   -2.5705    0.3765    0.0000 F   0  0  0  0  0  0  0  0  0  0  0  0
    1.1122   -0.1095    0.0000 C   0  0  0  0  0  0  0  0  0  0  0  0
    2.0427    0.8384   -0.0000 F   0  0  0  0  0  0  0  0  0  0  0  0
    1.3025   -0.8814   -1.0753 F   0  0  0  0  0  0  0  0  0  0  0  0
    1.3025   -0.8814    1.0753 F   0  0  0  0  0  0  0  0  0  0  0  0
  1  2  2  0  0  0  0
  1  3  1  0  0  0  0
  1  6  1  0  0  0  0
  2  4  1  0  0  0  0
  2  5  1  0  0  0  0
  6  7  1  0  0  0  0
  6  8  1  0  0  0  0
  6  9  1  0  0  0  0
M  END
$$$$
