/home/yang/projects/t99_calc/v1/qchem_data/combined/log_fchk/propene_betaF_rad.log
 OpenBabel05152619573D
Gaussian applications/g16/g16/g16 # opt freq uwb97xd/6-311+g(2d) geom=connectivi
  8  7  0  0  0  0  0  0  0  0999 V2000
    0.2537   -0.5723    0.0000 C   0  0  0  0  0  3  0  0  0  0  0  0
    1.4762   -0.1225    0.0000 C   0  0  0  0  0  0  0  0  0  0  0  0
    1.8270    1.1409   -0.0001 F   0  0  0  0  0  0  0  0  0  0  0  0
    2.5349   -0.8912   -0.0000 F   0  0  0  0  0  0  0  0  0  0  0  0
   -1.1296   -0.0782    0.0000 C   0  0  0  0  0  0  0  0  0  0  0  0
   -1.1587    1.2626   -0.0000 F   0  0  0  0  0  0  0  0  0  0  0  0
   -1.8017   -0.4984    1.0765 F   0  0  0  0  0  0  0  0  0  0  0  0
   -1.8017   -0.4985   -1.0764 F   0  0  0  0  0  0  0  0  0  0  0  0
  2  1  2  0  0  0  0
  3  2  1  0  0  0  0
  4  2  1  0  0  0  0
  5  1  1  0  0  0  0
  5  7  1  0  0  0  0
  6  5  1  0  0  0  0
  8  5  1  0  0  0  0
M  END
>  <program>
Gaussian 16, Revision A.03

>  <basis>
6-311+G(2d) (5D, 7F)

>  <File Format>
g03

$$$$
