/home/yang/projects/t99_calc/v1/qchem_data/combined/log_fchk/propene_calpha_rad.log
 OpenBabel05152619573D
Gaussian applications/g16/g16/g16 # opt freq uwb97xd/6-311+g(2d) geom=connectivi
  8  7  0  0  0  0  0  0  0  0999 V2000
   -0.5089    0.2567    0.0000 C   0  0  0  0  0  0  0  0  0  0  0  0
   -1.4927   -0.6134    0.0000 C   0  0  0  0  0  3  0  0  0  0  0  0
   -0.7076    1.5786   -0.0000 F   0  0  0  0  0  0  0  0  0  0  0  0
   -2.7683   -0.4319   -0.0000 F   0  0  0  0  0  0  0  0  0  0  0  0
    0.9352   -0.1466   -0.0000 C   0  0  0  0  0  0  0  0  0  0  0  0
    1.5678    0.3313   -1.0753 F   0  0  0  0  0  0  0  0  0  0  0  0
    1.0513   -1.4734   -0.0001 F   0  0  0  0  0  0  0  0  0  0  0  0
    1.5678    0.3311    1.0754 F   0  0  0  0  0  0  0  0  0  0  0  0
  2  1  2  0  0  0  0
  3  1  1  0  0  0  0
  4  2  1  0  0  0  0
  5  1  1  0  0  0  0
  5  8  1  0  0  0  0
  6  5  1  0  0  0  0
  7  5  1  0  0  0  0
M  END
>  <program>
Gaussian 16, Revision A.03

>  <basis>
6-311+G(2d) (5D, 7F)

>  <File Format>
g03

$$$$
