Title Card Required
 OpenBabel05152619573D

 11 10  0  0  0  0  0  0  0  0999 V2000
   -1.3128   -0.2363    0.0000 C   0  0  0  0  0  0  0  0  0  0  0  0
   -2.3440    0.5977   -0.0003 F   0  0  0  0  0  0  0  0  0  0  0  0
   -1.3811   -1.0030   -1.0801 F   0  0  0  0  0  0  0  0  0  0  0  0
   -1.3814   -1.0026    1.0803 F   0  0  0  0  0  0  0  0  0  0  0  0
    0.0000    0.5931    0.0000 C   0  0  0  0  0  0  0  0  0  0  0  0
   -0.0000    1.3677   -1.0917 F   0  0  0  0  0  0  0  0  0  0  0  0
    0.0000    1.3677    1.0917 F   0  0  0  0  0  0  0  0  0  0  0  0
    1.3128   -0.2363    0.0000 C   0  0  0  0  0  0  0  0  0  0  0  0
    1.3810   -1.0031   -1.0800 F   0  0  0  0  0  0  0  0  0  0  0  0
    1.3814   -1.0025    1.0804 F   0  0  0  0  0  0  0  0  0  0  0  0
    2.3440    0.5977   -0.0004 F   0  0  0  0  0  0  0  0  0  0  0  0
  1  2  1  0  0  0  0
  1  3  1  0  0  0  0
  1  4  1  0  0  0  0
  1  5  1  0  0  0  0
  5  6  1  0  0  0  0
  5  7  1  0  0  0  0
  5  8  1  0  0  0  0
  8  9  1  0  0  0  0
  8 10  1  0  0  0  0
  8 11  1  0  0  0  0
M  END
$$$$
