/home/yang/projects/t99_calc/v1/qchem_data/combined/log_fchk/propene_talphaF_rad.log
 OpenBabel05152619573D
Gaussian applications/g16/g16/g16 # opt freq uwb97xd/6-311+g(2d) geom=connectivi
  8  7  0  0  0  0  0  0  0  0999 V2000
    0.4089    0.6964   -0.0000 C   0  0  0  0  0  0  0  0  0  0  0  0
    1.6943    0.4282   -0.0000 C   0  0  0  0  0  3  0  0  0  0  0  0
   -0.0122    1.9620    0.0000 F   0  0  0  0  0  0  0  0  0  0  0  0
    2.3384   -0.6871    0.0000 F   0  0  0  0  0  0  0  0  0  0  0  0
   -0.7219   -0.2989   -0.0000 C   0  0  0  0  0  0  0  0  0  0  0  0
   -1.4956   -0.1397    1.0761 F   0  0  0  0  0  0  0  0  0  0  0  0
   -0.2558   -1.5461   -0.0000 F   0  0  0  0  0  0  0  0  0  0  0  0
   -1.4956   -0.1397   -1.0760 F   0  0  0  0  0  0  0  0  0  0  0  0
  1  2  2  0  0  0  0
  1  5  1  0  0  0  0
  1  3  1  0  0  0  0
  2  4  1  0  0  0  0
  5  6  1  0  0  0  0
  7  5  1  0  0  0  0
  8  5  1  0  0  0  0
M  END
>  <program>
Gaussian 16, Revision A.03

>  <basis>
6-311+G(2d) (5D, 7F)

>  <File Format>
g03

$$$$
