Title Card Required
 OpenBabel05152619573D

  8  7  0  0  0  0  0  0  0  0999 V2000
    0.5998    0.0205   -0.0001 C   0  0  0  0  0  0  0  0  0  0  0  0
    1.1012   -0.5655    1.0845 F   0  0  0  0  0  0  0  0  0  0  0  0
    1.1027   -0.5802   -1.0758 F   0  0  0  0  0  0  0  0  0  0  0  0
   -0.9399   -0.1395    0.0001 C   0  0  0  0  0  0  0  0  0  0  0  0
   -1.4547   -1.2134   -0.0002 O   0  0  0  0  0  0  0  0  0  0  0  0
   -1.5635    1.0321   -0.0002 O   0  0  0  0  0  0  0  0  0  0  0  0
   -2.5123    0.8572    0.0001 H   0  0  0  0  0  0  0  0  0  0  0  0
    0.9849    1.2910   -0.0084 F   0  0  0  0  0  0  0  0  0  0  0  0
  1  2  1  0  0  0  0
  1  3  1  0  0  0  0
  1  4  1  0  0  0  0
  1  8  1  0  0  0  0
  4  5  2  0  0  0  0
  4  6  1  0  0  0  0
  6  7  1  0  0  0  0
M  END
$$$$
