/home/yang/projects/t99_calc/v1/qchem_data/combined/log_fchk/tfcof.log
 OpenBabel05152619573D
Gaussian 16 # opt freq uwb97xd/6-311+g(2d,2p) geom=connectivity integral=grid=su
  7  6  0  0  0  0  0  0  0  0999 V2000
   -0.5924    0.0045   -0.0001 C   0  0  0  0  0  0  0  0  0  0  0  0
   -1.0823   -0.5976   -1.0780 F   0  0  0  0  0  0  0  0  0  0  0  0
   -1.0815   -0.5901    1.0824 F   0  0  0  0  0  0  0  0  0  0  0  0
    0.9502   -0.1390   -0.0001 C   0  0  0  0  0  0  0  0  0  0  0  0
    1.5174   -1.1641   -0.0001 O   0  0  0  0  0  0  0  0  0  0  0  0
   -0.9784    1.2711   -0.0043 F   0  0  0  0  0  0  0  0  0  0  0  0
    1.5549    1.0410   -0.0001 F   0  0  0  0  0  0  0  0  0  0  0  0
  1  3  1  0  0  0  0
  2  1  1  0  0  0  0
  4  1  1  0  0  0  0
  5  4  2  0  0  0  0
  6  1  1  0  0  0  0
  7  4  1  0  0  0  0
M  END
>  <program>
Gaussian 16, Revision A.03

>  <basis>
6-311+G(2d,2p) (5D, 7F)

>  <File Format>
g03

$$$$
