Title Card Required
 OpenBabel05152619573D

  9  8  0  0  0  0  0  0  0  0999 V2000
   -0.9945   -0.0038   -0.0023 C   0  0  0  0  0  0  0  0  0  0  0  0
   -1.3552   -1.2315    0.3506 F   0  0  0  0  0  0  0  0  0  0  0  0
   -1.5267    0.8685    0.8337 F   0  0  0  0  0  0  0  0  0  0  0  0
    0.8557    0.1376    0.0813 S   0  0  0  0  0  0  0  0  0  0  0  0
    1.2413   -0.2416    1.4006 O   0  0  0  0  0  1  0  0  0  0  0  0
    1.2110    1.3645   -0.5333 O   0  0  0  0  0  1  0  0  0  0  0  0
    1.2435   -1.0273   -0.9261 O   0  0  0  0  0  0  0  0  0  0  0  0
    1.3818   -1.8374   -0.4152 H   0  0  0  0  0  0  0  0  0  0  0  0
   -1.4150    0.2400   -1.2289 F   0  0  0  0  0  0  0  0  0  0  0  0
  1  2  1  0  0  0  0
  1  3  1  0  0  0  0
  1  4  1  0  0  0  0
  1  9  1  0  0  0  0
  4  5  1  0  0  0  0
  4  6  1  0  0  0  0
  4  7  1  0  0  0  0
  7  8  1  0  0  0  0
M  END
$$$$
