Title Card Required
     RDKit          3D

 14 13  0  0  0  0  0  0  0  0999 V2000
    1.7832   -0.0767   -0.0481 C   0  0  0  0  0  0  0  0  0  0  0  0
    2.0041   -0.4999    1.1909 F   0  0  0  0  0  0  0  0  0  0  0  0
    1.9808   -1.0779   -0.8918 F   0  0  0  0  0  0  0  0  0  0  0  0
    0.3392    0.4844   -0.1775 C   0  0  0  0  0  0  0  0  0  0  0  0
    0.2827    1.6315    0.5079 F   0  0  0  0  0  0  0  0  0  0  0  0
    0.1136    0.7436   -1.4779 F   0  0  0  0  0  0  0  0  0  0  0  0
   -0.7836   -0.4642    0.3290 C   0  0  0  0  0  0  0  0  0  0  0  0
   -0.7764   -0.4736    1.6733 F   0  0  0  0  0  0  0  0  0  0  0  0
   -0.5405   -1.7017   -0.1110 F   0  0  0  0  0  0  0  0  0  0  0  0
   -2.1835   -0.0321   -0.1791 C   0  0  0  0  0  0  0  0  0  0  0  0
   -2.8135   -0.6710   -0.9597 O   0  0  0  0  0  0  0  0  0  0  0  0
   -2.5505    1.1154    0.3803 O   0  0  0  0  0  0  0  0  0  0  0  0
   -3.4198    1.3511    0.0352 H   0  0  0  0  0  0  0  0  0  0  0  0
    2.6469    0.8918   -0.3297 F   0  0  0  0  0  0  0  0  0  0  0  0
  1  2  1  0
  1  3  1  0
  1  4  1  0
  1 14  1  0
  4  5  1  0
  4  6  1  0
  4  7  1  0
  7  8  1  0
  7  9  1  0
  7 10  1  0
 10 11  2  0
 10 12  1  0
 12 13  1  0
M  END
$$$$
