Title Card Required
     RDKit          3D

 20 19  0  0  0  0  0  0  0  0999 V2000
    0.4430   -0.3940    0.0915 C   0  0  0  0  0  0  0  0  0  0  0  0
    0.4214   -1.0235    1.2737 F   0  0  0  0  0  0  0  0  0  0  0  0
    0.5790   -1.3016   -0.8834 F   0  0  0  0  0  0  0  0  0  0  0  0
   -0.9121    0.3536   -0.1094 C   0  0  0  0  0  0  0  0  0  0  0  0
   -0.8913    1.4954    0.5896 F   0  0  0  0  0  0  0  0  0  0  0  0
   -1.0503    0.6463   -1.4138 F   0  0  0  0  0  0  0  0  0  0  0  0
   -2.1590   -0.4749    0.3232 C   0  0  0  0  0  0  0  0  0  0  0  0
   -2.2625   -0.4553    1.6625 F   0  0  0  0  0  0  0  0  0  0  0  0
   -2.0055   -1.7382   -0.0816 F   0  0  0  0  0  0  0  0  0  0  0  0
   -3.4645    0.0824   -0.3022 C   0  0  0  0  0  0  0  0  0  0  0  0
   -4.1019   -0.5149   -1.1092 O   0  0  0  0  0  0  0  0  0  0  0  0
   -3.7454    1.2814    0.1959 O   0  0  0  0  0  0  0  0  0  0  0  0
   -4.5575    1.5947   -0.2196 H   0  0  0  0  0  0  0  0  0  0  0  0
    1.6781    0.5596    0.0706 C   0  0  0  0  0  0  0  0  0  0  0  0
    1.7413    1.2107    1.2366 F   0  0  0  0  0  0  0  0  0  0  0  0
    1.5407    1.4490   -0.9232 F   0  0  0  0  0  0  0  0  0  0  0  0
    3.0385   -0.1695   -0.1377 C   0  0  0  0  0  0  0  0  0  0  0  0
    4.0212    0.6946    0.0827 F   0  0  0  0  0  0  0  0  0  0  0  0
    3.1460   -0.6256   -1.3765 F   0  0  0  0  0  0  0  0  0  0  0  0
    3.1592   -1.1818    0.7124 F   0  0  0  0  0  0  0  0  0  0  0  0
  1  2  1  0
  1  3  1  0
  1  4  1  0
  1 14  1  0
  4  5  1  0
  4  6  1  0
  4  7  1  0
  7  8  1  0
  7  9  1  0
  7 10  1  0
 10 11  2  0
 10 12  1  0
 12 13  1  0
 14 15  1  0
 14 16  1  0
 14 17  1  0
 17 18  1  0
 17 19  1  0
 17 20  1  0
M  END
$$$$
