/home/yang/projects/t99_calc/v1/qchem_data/combined/log_fchk/1_octane_c7_rad.log
     RDKit          3D

 22 21  0  0  0  0  0  0  0  0999 V2000
    1.5429   -0.2986   -0.0874 C   0  0  0  0  0  0  0  0  0  0  0  0
    1.6954   -0.5801   -1.3900 F   0  0  0  0  0  0  0  0  0  0  0  0
    1.4470   -1.4485    0.5946 F   0  0  0  0  0  0  0  0  0  0  0  0
    2.8285    0.4451    0.4000 C   0  0  0  0  0  0  0  0  0  0  0  0
    2.7905    1.7109   -0.0452 F   0  0  0  0  0  0  0  0  0  0  0  0
    2.8397    0.4404    1.7409 F   0  0  0  0  0  0  0  0  0  0  0  0
    4.1281   -0.1773   -0.0794 C   0  0  0  0  0  3  0  0  0  0  0  0
    4.4234    0.0115   -1.3429 F   0  0  0  0  0  0  0  0  0  0  0  0
    4.3305   -1.4191    0.2982 F   0  0  0  0  0  0  0  0  0  0  0  0
    0.2255    0.5214    0.0907 C   0  0  0  0  0  0  0  0  0  0  0  0
   -1.0595   -0.3657    0.0190 C   0  0  0  0  0  0  0  0  0  0  0  0
    0.1713    1.4463   -0.8760 F   0  0  0  0  0  0  0  0  0  0  0  0
    0.2487    1.1332    1.2810 F   0  0  0  0  0  0  0  0  0  0  0  0
   -0.9205   -1.2628   -0.9661 F   0  0  0  0  0  0  0  0  0  0  0  0
   -1.1911   -1.0149    1.1829 F   0  0  0  0  0  0  0  0  0  0  0  0
   -2.3564    0.4585   -0.2536 C   0  0  0  0  0  0  0  0  0  0  0  0
   -3.6730   -0.3079    0.0709 C   0  0  0  0  0  0  0  0  0  0  0  0
   -3.6688   -1.5045   -0.5042 F   0  0  0  0  0  0  0  0  0  0  0  0
   -3.8249   -0.4536    1.3785 F   0  0  0  0  0  0  0  0  0  0  0  0
   -4.6976    0.3907   -0.4003 F   0  0  0  0  0  0  0  0  0  0  0  0
   -2.3450    1.5737    0.4895 F   0  0  0  0  0  0  0  0  0  0  0  0
   -2.3894    0.7931   -1.5476 F   0  0  0  0  0  0  0  0  0  0  0  0
  1 10  1  0
  1  4  1  0
  1  3  1  0
  2  1  1  0
  4  6  1  0
  5  4  1  0
  7  9  1  0
  7  4  1  0
  8  7  1  0
 10 13  1  0
 11 10  1  0
 11 15  1  0
 12 10  1  0
 14 11  1  0
 16 11  1  0
 16 17  1  0
 16 21  1  0
 17 19  1  0
 18 17  1  0
 20 17  1  0
 22 16  1  0
M  RAD  1   7   2
M  END
>  <program>  (1) 
Gaussian 16, Revision A.03

>  <basis>  (1) 
6-311+G(2d,2p) (5D, 7F)

>  <File Format>  (1) 
g03

$$$$
