/home/yang/projects/t99_calc/v1/qchem_data/combined/log_fchk/1_octane.log
     RDKit          3D

 26 25  0  0  0  0  0  0  0  0999 V2000
    0.8790    0.4419    0.1807 C   0  0  0  0  0  0  0  0  0  0  0  0
    0.9499    0.8611    1.4503 F   0  0  0  0  0  0  0  0  0  0  0  0
    0.7586    1.5023   -0.6274 F   0  0  0  0  0  0  0  0  0  0  0  0
    2.2013   -0.3075   -0.1758 C   0  0  0  0  0  0  0  0  0  0  0  0
    2.1500   -1.5493    0.3225 F   0  0  0  0  0  0  0  0  0  0  0  0
    2.3073   -0.3806   -1.5134 F   0  0  0  0  0  0  0  0  0  0  0  0
    3.4851    0.3941    0.3612 C   0  0  0  0  0  0  0  0  0  0  0  0
    3.6095    0.1470    1.6759 F   0  0  0  0  0  0  0  0  0  0  0  0
    3.3720    1.7117    0.1761 F   0  0  0  0  0  0  0  0  0  0  0  0
    4.7587   -0.0947   -0.3771 C   0  0  0  0  0  0  0  0  0  0  0  0
    5.4046    0.6071   -1.0876 O   0  0  0  0  0  0  0  0  0  0  0  0
    5.0031   -1.3689   -0.0919 O   0  0  0  0  0  0  0  0  0  0  0  0
    5.7965   -1.6355   -0.5713 H   0  0  0  0  0  0  0  0  0  0  0  0
   -0.3913   -0.4572    0.0284 C   0  0  0  0  0  0  0  0  0  0  0  0
   -1.7148    0.3704   -0.0586 C   0  0  0  0  0  0  0  0  0  0  0  0
   -0.4604   -1.2782    1.0835 F   0  0  0  0  0  0  0  0  0  0  0  0
   -0.2775   -1.1870   -1.0889 F   0  0  0  0  0  0  0  0  0  0  0  0
   -1.6660    1.3738    0.8270 F   0  0  0  0  0  0  0  0  0  0  0  0
   -1.8154    0.8822   -1.2919 F   0  0  0  0  0  0  0  0  0  0  0  0
   -2.9875   -0.4818    0.2419 C   0  0  0  0  0  0  0  0  0  0  0  0
   -4.3171    0.1793   -0.2288 C   0  0  0  0  0  0  0  0  0  0  0  0
   -4.3949    1.4306    0.2077 F   0  0  0  0  0  0  0  0  0  0  0  0
   -4.4065    0.1724   -1.5503 F   0  0  0  0  0  0  0  0  0  0  0  0
   -5.3340   -0.5125    0.2687 F   0  0  0  0  0  0  0  0  0  0  0  0
   -2.8884   -1.6695   -0.3713 F   0  0  0  0  0  0  0  0  0  0  0  0
   -3.0752   -0.6748    1.5619 F   0  0  0  0  0  0  0  0  0  0  0  0
  1  2  1  0
  3  1  1  0
  4  1  1  0
  4  5  1  0
  4  7  1  0
  6  4  1  0
  7  8  1  0
  9  7  1  0
 10 12  1  0
 10  7  1  0
 11 10  2  0
 13 12  1  0
 14  1  1  0
 14 16  1  0
 15 14  1  0
 15 20  1  0
 15 18  1  0
 17 14  1  0
 19 15  1  0
 20 26  1  0
 21 22  1  0
 21 20  1  0
 21 24  1  0
 23 21  1  0
 25 20  1  0
M  END
>  <program>  (1) 
Gaussian 16, Revision A.03

>  <basis>  (1) 
6-311+G(2d,2p) (5D, 7F)

>  <File Format>  (1) 
g03

$$$$
