/home/yang/projects/t99_calc/v1/qchem_data/combined/log_fchk/1_pentane.log
     RDKit          3D

 17 16  0  0  0  0  0  0  0  0999 V2000
   -1.0712    0.5348   -0.0261 C   0  0  0  0  0  0  0  0  0  0  0  0
   -1.0679    1.2523    1.1061 F   0  0  0  0  0  0  0  0  0  0  0  0
   -1.1129    1.3649   -1.0730 F   0  0  0  0  0  0  0  0  0  0  0  0
    0.2345   -0.3116   -0.1040 C   0  0  0  0  0  0  0  0  0  0  0  0
    0.1119   -1.3815    0.6924 F   0  0  0  0  0  0  0  0  0  0  0  0
    0.3925   -0.7343   -1.3704 F   0  0  0  0  0  0  0  0  0  0  0  0
    1.5205    0.4685    0.3005 C   0  0  0  0  0  0  0  0  0  0  0  0
    1.5730    0.5713    1.6393 F   0  0  0  0  0  0  0  0  0  0  0  0
    1.4713    1.6943   -0.2266 F   0  0  0  0  0  0  0  0  0  0  0  0
    2.8055   -0.2322   -0.2129 C   0  0  0  0  0  0  0  0  0  0  0  0
    3.5119    0.2401   -1.0448 O   0  0  0  0  0  0  0  0  0  0  0  0
    2.9837   -1.3931    0.4079 O   0  0  0  0  0  0  0  0  0  0  0  0
    3.7866   -1.7981    0.0591 H   0  0  0  0  0  0  0  0  0  0  0  0
   -2.3789   -0.3106   -0.0422 C   0  0  0  0  0  0  0  0  0  0  0  0
   -2.5277   -0.9748    1.0943 F   0  0  0  0  0  0  0  0  0  0  0  0
   -2.3621   -1.1731   -1.0520 F   0  0  0  0  0  0  0  0  0  0  0  0
   -3.4132    0.5064   -0.1942 F   0  0  0  0  0  0  0  0  0  0  0  0
  1  2  1  0
  3  1  1  0
  4  1  1  0
  4  7  1  0
  4  5  1  0
  6  4  1  0
  7  8  1  0
  9  7  1  0
 10  7  1  0
 10 12  1  0
 11 10  2  0
 13 12  1  0
 14  1  1  0
 14 15  1  0
 16 14  1  0
 17 14  1  0
M  END
>  <program>  (1) 
Gaussian 16, Revision A.03

>  <basis>  (1) 
6-311+G(2d,2p) (5D, 7F)

>  <File Format>  (1) 
g03

$$$$
