Title Card Required
     RDKit          3D

 15 14  0  0  0  0  0  0  0  0999 V2000
    2.1219   -0.1919   -0.0000 C   0  0  0  0  0  0  0  0  0  0  0  0
    3.1275    0.6742    0.0001 F   0  0  0  0  0  0  0  0  0  0  0  0
    2.2177   -0.9558    1.0800 F   0  0  0  0  0  0  0  0  0  0  0  0
    2.2177   -0.9556   -1.0801 F   0  0  0  0  0  0  0  0  0  0  0  0
    0.7857    0.6027    0.0000 C   0  0  0  0  0  0  0  0  0  0  0  0
    0.7728    1.3761    1.0919 F   0  0  0  0  0  0  0  0  0  0  0  0
    0.7729    1.3762   -1.0917 F   0  0  0  0  0  0  0  0  0  0  0  0
   -0.5102   -1.0514    1.0830 F   0  0  0  0  0  0  0  0  0  0  0  0
   -0.5102   -1.0513   -1.0832 F   0  0  0  0  0  0  0  0  0  0  0  0
   -2.8565    0.2237    0.0000 C   0  0  0  0  0  0  0  0  0  0  0  0
   -3.7257    1.0297   -0.0000 O   0  0  0  0  0  0  0  0  0  0  0  0
   -2.9922   -1.0966    0.0001 O   0  0  0  0  0  0  0  0  0  0  0  0
   -3.9397   -1.2813    0.0001 H   0  0  0  0  0  0  0  0  0  0  0  0
   -0.5029   -0.2688   -0.0000 C   0  0  0  0  0  0  0  0  0  0  0  0
   -1.5498    0.6139   -0.0000 O   0  0  0  0  0  0  0  0  0  0  0  0
  1  2  1  0
  1  3  1  0
  1  4  1  0
  1  5  1  0
  5  6  1  0
  5  7  1  0
  5 14  1  0
  8 14  1  0
  9 14  1  0
 10 11  2  0
 10 12  1  0
 10 15  1  0
 12 13  1  0
 14 15  1  0
M  END
$$$$
