Title Card Required
     RDKit          3D

 14 13  0  0  0  0  0  0  0  0999 V2000
    2.2130    0.1783    0.0000 C   0  0  0  0  0  0  0  0  0  0  0  0
    2.4375   -0.0619    1.3015 F   0  0  0  0  0  0  0  0  0  0  0  0
    2.4739   -0.9389   -0.7021 F   0  0  0  0  0  0  0  0  0  0  0  0
    0.7492    0.6101   -0.2236 C   0  0  0  0  0  0  0  0  0  0  0  0
    0.4994    1.6354    0.6104 F   0  0  0  0  0  0  0  0  0  0  0  0
    0.6586    1.0606   -1.4878 F   0  0  0  0  0  0  0  0  0  0  0  0
   -0.3207   -0.4987   -0.0179 C   0  0  0  0  0  0  0  0  0  0  0  0
   -0.0504   -1.1753    1.1071 F   0  0  0  0  0  0  0  0  0  0  0  0
   -0.2681   -1.3409   -1.0568 F   0  0  0  0  0  0  0  0  0  0  0  0
   -1.7820    0.0255    0.0916 C   0  0  0  0  0  0  0  0  0  0  0  0
   -2.6109   -1.0105    0.0633 F   0  0  0  0  0  0  0  0  0  0  0  0
   -2.0673    0.8297   -0.9259 F   0  0  0  0  0  0  0  0  0  0  0  0
   -1.9643    0.6825    1.2279 F   0  0  0  0  0  0  0  0  0  0  0  0
    2.8676    0.9833   -0.3397 H   0  0  0  0  0  0  0  0  0  0  0  0
  1  2  1  0
  1  3  1  0
  1  4  1  0
  1 14  1  0
  4  5  1  0
  4  6  1  0
  4  7  1  0
  7  8  1  0
  7  9  1  0
  7 10  1  0
 10 11  1  0
 10 12  1  0
 10 13  1  0
M  END
$$$$
