Title Card Required
     RDKit          3D

  8  7  0  0  0  0  0  0  0  0999 V2000
   -0.6008    0.7518   -0.0000 C   0  0  0  0  0  0  0  0  0  0  0  0
   -0.2332    1.4413    1.0941 F   0  0  0  0  0  0  0  0  0  0  0  0
   -0.2332    1.4413   -1.0941 F   0  0  0  0  0  0  0  0  0  0  0  0
    0.1217   -0.6035    0.0000 C   0  0  0  0  0  0  0  0  0  0  0  0
   -0.2332   -1.2972    1.0810 F   0  0  0  0  0  0  0  0  0  0  0  0
    1.4391   -0.4549    0.0000 F   0  0  0  0  0  0  0  0  0  0  0  0
   -0.2332   -1.2972   -1.0810 F   0  0  0  0  0  0  0  0  0  0  0  0
   -1.6822    0.6109   -0.0000 H   0  0  0  0  0  0  0  0  0  0  0  0
  1  2  1  0
  1  3  1  0
  1  4  1  0
  1  8  1  0
  4  5  1  0
  4  6  1  0
  4  7  1  0
M  END
$$$$
