Title Card Required
     RDKit          3D

 11 10  0  0  0  0  0  0  0  0999 V2000
    1.0341   -0.3717   -0.0001 C   0  0  0  0  0  0  0  0  0  0  0  0
    2.2000    0.2650    0.0001 F   0  0  0  0  0  0  0  0  0  0  0  0
    0.9684   -1.1391    1.0800 F   0  0  0  0  0  0  0  0  0  0  0  0
    0.9685   -1.1387   -1.0805 F   0  0  0  0  0  0  0  0  0  0  0  0
   -0.1132    0.6697    0.0001 C   0  0  0  0  0  0  0  0  0  0  0  0
    0.0285    1.4412    1.0922 F   0  0  0  0  0  0  0  0  0  0  0  0
    0.0284    1.4415   -1.0918 F   0  0  0  0  0  0  0  0  0  0  0  0
   -1.5526    0.1241    0.0001 C   0  0  0  0  0  0  0  0  0  0  0  0
   -1.7614   -0.6297    1.0932 F   0  0  0  0  0  0  0  0  0  0  0  0
   -1.7616   -0.6291   -1.0934 F   0  0  0  0  0  0  0  0  0  0  0  0
   -2.2466    0.9669    0.0003 H   0  0  0  0  0  0  0  0  0  0  0  0
  1  2  1  0
  1  3  1  0
  1  4  1  0
  1  5  1  0
  5  6  1  0
  5  7  1  0
  5  8  1  0
  8  9  1  0
  8 10  1  0
  8 11  1  0
M  END
$$$$
