/home/yang/projects/t99_calc/v1/qchem_data/combined/log_fchk/1H_pentane.log
     RDKit          3D

 17 16  0  0  0  0  0  0  0  0999 V2000
    2.3814   -0.3257    0.0019 C   0  0  0  0  0  0  0  0  0  0  0  0
    3.4174    0.4321   -0.3358 F   0  0  0  0  0  0  0  0  0  0  0  0
    2.5512   -0.7431    1.2476 F   0  0  0  0  0  0  0  0  0  0  0  0
    2.3373   -1.3764   -0.8081 F   0  0  0  0  0  0  0  0  0  0  0  0
    1.0811    0.5212   -0.1284 C   0  0  0  0  0  0  0  0  0  0  0  0
    1.1153    1.4606    0.8277 F   0  0  0  0  0  0  0  0  0  0  0  0
    1.1020    1.1148   -1.3267 F   0  0  0  0  0  0  0  0  0  0  0  0
   -0.2347   -0.3066   -0.0010 C   0  0  0  0  0  0  0  0  0  0  0  0
   -0.1047   -1.1801    1.0073 F   0  0  0  0  0  0  0  0  0  0  0  0
   -0.4114   -0.9870   -1.1412 F   0  0  0  0  0  0  0  0  0  0  0  0
   -1.4945    0.5685    0.2691 C   0  0  0  0  0  0  0  0  0  0  0  0
   -1.4484    1.6713   -0.4986 F   0  0  0  0  0  0  0  0  0  0  0  0
   -1.4862    0.9459    1.5597 F   0  0  0  0  0  0  0  0  0  0  0  0
   -2.8504   -0.1209    0.0101 C   0  0  0  0  0  0  0  0  0  0  0  0
   -2.8803   -1.3163    0.6270 F   0  0  0  0  0  0  0  0  0  0  0  0
   -3.0426   -0.3033   -1.3055 F   0  0  0  0  0  0  0  0  0  0  0  0
   -3.6434    0.5146    0.4090 H   0  0  0  0  0  0  0  0  0  0  0  0
  1  3  1  0
  2  1  1  0
  4  1  1  0
  5  8  1  0
  5  1  1  0
  5  6  1  0
  7  5  1  0
  8 11  1  0
  8  9  1  0
 10  8  1  0
 11 13  1  0
 12 11  1  0
 14 11  1  0
 14 17  1  0
 14 15  1  0
 16 14  1  0
M  END
>  <program>  (1) 
Gaussian 16, Revision C.02

>  <basis>  (1) 
6-311+G(2d,2p) (5D, 7F)

>  <File Format>  (1) 
g03

$$$$
