Title Card Required
     RDKit          3D

 35 34  0  0  0  0  0  0  0  0999 V2000
   -4.1220    0.2575   -0.2209 C   0  0  0  0  0  0  0  0  0  0  0  0
   -4.2461   -0.1129   -1.5014 F   0  0  0  0  0  0  0  0  0  0  0  0
   -4.0319    1.5931   -0.1596 F   0  0  0  0  0  0  0  0  0  0  0  0
   -5.3984   -0.1828    0.5568 C   0  0  0  0  0  0  0  0  0  0  0  0
   -5.3217   -1.4953    0.8388 F   0  0  0  0  0  0  0  0  0  0  0  0
   -5.4563    0.5005    1.7132 F   0  0  0  0  0  0  0  0  0  0  0  0
   -6.7359    0.0574   -0.1747 C   0  0  0  0  0  0  0  0  0  0  0  0
   -6.8666   -0.7878   -1.2089 F   0  0  0  0  0  0  0  0  0  0  0  0
   -6.7851    1.3214   -0.6331 F   0  0  0  0  0  0  0  0  0  0  0  0
   -2.8065   -0.3666    0.3480 C   0  0  0  0  0  0  0  0  0  0  0  0
   -1.5214    0.3948   -0.1150 C   0  0  0  0  0  0  0  0  0  0  0  0
   -2.7292   -1.6392   -0.0618 F   0  0  0  0  0  0  0  0  0  0  0  0
   -2.8538   -0.3388    1.6861 F   0  0  0  0  0  0  0  0  0  0  0  0
   -1.6450    0.7152   -1.4088 F   0  0  0  0  0  0  0  0  0  0  0  0
   -1.4101    1.5168    0.6073 F   0  0  0  0  0  0  0  0  0  0  0  0
   -0.2188   -0.4532    0.0604 C   0  0  0  0  0  0  0  0  0  0  0  0
    1.0793    0.4188    0.0410 C   0  0  0  0  0  0  0  0  0  0  0  0
    0.9677    1.3483   -0.9158 F   0  0  0  0  0  0  0  0  0  0  0  0
    1.2015    1.0233    1.2294 F   0  0  0  0  0  0  0  0  0  0  0  0
   -0.2738   -1.1015    1.2304 F   0  0  0  0  0  0  0  0  0  0  0  0
   -0.1573   -1.3464   -0.9350 F   0  0  0  0  0  0  0  0  0  0  0  0
   -7.5512   -0.1051    0.5331 H   0  0  0  0  0  0  0  0  0  0  0  0
    2.3690   -0.4216   -0.2363 C   0  0  0  0  0  0  0  0  0  0  0  0
    2.4260   -0.6912   -1.5462 F   0  0  0  0  0  0  0  0  0  0  0  0
    2.2972   -1.5713    0.4461 F   0  0  0  0  0  0  0  0  0  0  0  0
    3.6782    0.3203    0.1879 C   0  0  0  0  0  0  0  0  0  0  0  0
    4.9597   -0.2791   -0.4716 C   0  0  0  0  0  0  0  0  0  0  0  0
    6.2865    0.1431    0.2268 C   0  0  0  0  0  0  0  0  0  0  0  0
    3.5892    1.6085   -0.1675 F   0  0  0  0  0  0  0  0  0  0  0  0
    3.7966    0.2433    1.5195 F   0  0  0  0  0  0  0  0  0  0  0  0
    5.0215    0.1298   -1.7428 F   0  0  0  0  0  0  0  0  0  0  0  0
    4.8961   -1.6175   -0.4421 F   0  0  0  0  0  0  0  0  0  0  0  0
    6.3299    1.4605    0.3853 F   0  0  0  0  0  0  0  0  0  0  0  0
    6.4055   -0.4422    1.4089 F   0  0  0  0  0  0  0  0  0  0  0  0
    7.3052   -0.2307   -0.5363 F   0  0  0  0  0  0  0  0  0  0  0  0
  1  2  1  0
  1  3  1  0
  1  4  1  0
  1 10  1  0
  4  5  1  0
  4  6  1  0
  4  7  1  0
  7  8  1  0
  7  9  1  0
  7 22  1  0
 10 11  1  0
 10 12  1  0
 10 13  1  0
 11 14  1  0
 11 15  1  0
 11 16  1  0
 16 17  1  0
 16 20  1  0
 16 21  1  0
 17 18  1  0
 17 19  1  0
 17 23  1  0
 23 24  1  0
 23 25  1  0
 23 26  1  0
 26 27  1  0
 26 29  1  0
 26 30  1  0
 27 28  1  0
 27 31  1  0
 27 32  1  0
 28 33  1  0
 28 34  1  0
 28 35  1  0
M  END
$$$$
