Title Card Required
     RDKit          3D

  9  8  0  0  0  0  0  0  0  0999 V2000
    0.5863    0.0426   -0.0001 C   0  0  0  0  0  0  0  0  0  0  0  0
    1.0735   -0.5805   -1.0771 F   0  0  0  0  0  0  0  0  0  0  0  0
    1.0524    1.2923    0.0001 F   0  0  0  0  0  0  0  0  0  0  0  0
   -0.9210    0.0241   -0.0001 C   0  0  0  0  0  0  0  0  0  0  0  0
   -1.3846   -1.2270   -0.0003 F   0  0  0  0  0  0  0  0  0  0  0  0
   -1.7093    1.0749    0.0001 C   0  0  0  0  0  0  0  0  0  0  0  0
   -1.2854    2.0654    0.0001 H   0  0  0  0  0  0  0  0  0  0  0  0
   -2.7815    0.9515    0.0003 H   0  0  0  0  0  0  0  0  0  0  0  0
    1.0732   -0.5810    1.0772 F   0  0  0  0  0  0  0  0  0  0  0  0
  1  2  1  0
  1  3  1  0
  1  4  1  0
  1  9  1  0
  4  5  1  0
  4  6  2  0
  6  7  1  0
  6  8  1  0
M  END
$$$$
