/home/yang/projects/t99_calc/v1/qchem_data/combined/log_fchk/22_ftsa.log
     RDKit          3D

 19 18  0  0  0  0  0  0  0  0999 V2000
   -2.6074   -0.3823   -0.0000 C   0  0  0  0  0  0  0  0  0  0  0  0
   -1.3557    0.5245    0.0001 C   0  0  0  0  0  0  0  0  0  0  0  0
   -0.0551   -0.2437    0.0002 C   0  0  0  0  0  0  0  0  0  0  0  0
    1.1363    0.7039   -0.0001 C   0  0  0  0  0  0  0  0  0  0  0  0
    2.6511   -0.2432    0.0000 S   0  0  0  0  0  0  0  0  0  0  0  0
    2.7305   -0.9394    1.2561 O   0  0  0  0  0  0  0  0  0  0  0  0
    2.7302   -0.9401   -1.2557 O   0  0  0  0  0  0  0  0  0  0  0  0
   -1.4461    1.3239    1.0903 F   0  0  0  0  0  0  0  0  0  0  0  0
   -1.4460    1.3238   -1.0903 F   0  0  0  0  0  0  0  0  0  0  0  0
   -2.6081   -1.1619    1.0808 F   0  0  0  0  0  0  0  0  0  0  0  0
   -2.6079   -1.1619   -1.0808 F   0  0  0  0  0  0  0  0  0  0  0  0
   -3.7171    0.3429   -0.0001 F   0  0  0  0  0  0  0  0  0  0  0  0
    3.8040    0.9472   -0.0004 N   0  0  0  0  0  0  0  0  0  0  0  0
    4.3650    0.8921    0.8380 H   0  0  0  0  0  0  0  0  0  0  0  0
    4.3650    0.8915   -0.8388 H   0  0  0  0  0  0  0  0  0  0  0  0
    1.1618    1.3304    0.8883 H   0  0  0  0  0  0  0  0  0  0  0  0
    1.1617    1.3300   -0.8888 H   0  0  0  0  0  0  0  0  0  0  0  0
   -0.0340   -0.8815    0.8828 H   0  0  0  0  0  0  0  0  0  0  0  0
   -0.0340   -0.8819   -0.8822 H   0  0  0  0  0  0  0  0  0  0  0  0
  1  2  1  0
  1 10  1  0
  2  3  1  0
  2  8  1  0
  3 18  1  0
  4  5  1  0
  4  3  1  0
  4 16  1  0
  5  6  2  0
  7  5  2  0
  9  2  1  0
 11  1  1  0
 12  1  1  0
 13  5  1  0
 13 14  1  0
 15 13  1  0
 17  4  1  0
 19  3  1  0
M  END
>  <program>  (1) 
Gaussian 16, Revision C.02

>  <basis>  (1) 
6-311+G(2d,2p) (5D, 7F)

>  <File Format>  (1) 
g03

$$$$
