Title Card Required
     RDKit          3D

 18 17  0  0  0  0  0  0  0  0999 V2000
   -2.7196   -0.0524   -0.1152 S   0  0  0  0  0  0  0  0  0  0  0  0
   -1.1461    0.7692    0.0290 C   0  0  0  0  0  0  0  0  0  0  0  0
   -2.6790   -1.0001   -1.1933 O   0  0  0  0  0  1  0  0  0  0  0  0
   -3.7410    0.9363   -0.0209 O   0  0  0  0  0  1  0  0  0  0  0  0
   -2.7295   -0.9056    1.2493 O   0  0  0  0  0  0  0  0  0  0  0  0
   -2.8022   -1.8354    1.0092 H   0  0  0  0  0  0  0  0  0  0  0  0
    0.0209   -0.2030   -0.0306 C   0  0  0  0  0  0  0  0  0  0  0  0
    1.3404    0.5324    0.0332 C   0  0  0  0  0  0  0  0  0  0  0  0
    2.5682   -0.4050   -0.0259 C   0  0  0  0  0  0  0  0  0  0  0  0
    1.4564    1.4055   -0.9944 F   0  0  0  0  0  0  0  0  0  0  0  0
    1.4396    1.2452    1.1804 F   0  0  0  0  0  0  0  0  0  0  0  0
    2.5577   -1.1007   -1.1623 F   0  0  0  0  0  0  0  0  0  0  0  0
    3.6957    0.2862    0.0396 F   0  0  0  0  0  0  0  0  0  0  0  0
    2.5343   -1.2651    0.9929 F   0  0  0  0  0  0  0  0  0  0  0  0
   -1.1831    1.3271    0.9620 H   0  0  0  0  0  0  0  0  0  0  0  0
   -1.1341    1.4756   -0.7996 H   0  0  0  0  0  0  0  0  0  0  0  0
   -0.0162   -0.8987    0.8062 H   0  0  0  0  0  0  0  0  0  0  0  0
   -0.0094   -0.7762   -0.9558 H   0  0  0  0  0  0  0  0  0  0  0  0
  1  2  1  0
  1  3  1  0
  1  4  1  0
  1  5  1  0
  2  7  1  0
  2 15  1  0
  2 16  1  0
  5  6  1  0
  7  8  1  0
  7 17  1  0
  7 18  1  0
  8  9  1  0
  8 10  1  0
  8 11  1  0
  9 12  1  0
  9 13  1  0
  9 14  1  0
M  RAD  2   3   2   4   2
M  END
$$$$
