Title Card Required
     RDKit          3D

 15 14  0  0  0  0  0  0  0  0999 V2000
    1.4384   -0.3146    0.0000 C   0  0  0  0  0  0  0  0  0  0  0  0
    0.0803    0.4233    0.0001 C   0  0  0  0  0  0  0  0  0  0  0  0
   -1.1118   -0.4997   -0.0001 C   0  0  0  0  0  0  0  0  0  0  0  0
   -2.4318    0.2538   -0.0001 C   0  0  0  0  0  0  0  0  0  0  0  0
    0.0755    1.2302   -1.0908 F   0  0  0  0  0  0  0  0  0  0  0  0
    0.0754    1.2298    1.0911 F   0  0  0  0  0  0  0  0  0  0  0  0
    1.5424   -1.0885   -1.0807 F   0  0  0  0  0  0  0  0  0  0  0  0
    1.5423   -1.0889    1.0806 F   0  0  0  0  0  0  0  0  0  0  0  0
    2.4472    0.5467    0.0002 F   0  0  0  0  0  0  0  0  0  0  0  0
   -3.4484   -0.7307   -0.0002 O   0  0  0  0  0  0  0  0  0  0  0  0
   -4.3010   -0.2981   -0.0005 H   0  0  0  0  0  0  0  0  0  0  0  0
   -1.0549   -1.1380    0.8808 H   0  0  0  0  0  0  0  0  0  0  0  0
   -1.0548   -1.1378   -0.8812 H   0  0  0  0  0  0  0  0  0  0  0  0
   -2.4998    0.8895    0.8864 H   0  0  0  0  0  0  0  0  0  0  0  0
   -2.4998    0.8897   -0.8865 H   0  0  0  0  0  0  0  0  0  0  0  0
  1  2  1  0
  1  7  1  0
  1  8  1  0
  1  9  1  0
  2  3  1  0
  2  5  1  0
  2  6  1  0
  3  4  1  0
  3 12  1  0
  3 13  1  0
  4 10  1  0
  4 14  1  0
  4 15  1  0
 10 11  1  0
M  END
$$$$
