Title Card Required
     RDKit          3D

 17 16  0  0  0  0  0  0  0  0999 V2000
    0.7702   -0.4771    0.1489 C   0  0  0  0  0  0  0  0  0  0  0  0
    0.8477   -0.8530    1.4488 F   0  0  0  0  0  0  0  0  0  0  0  0
    0.8744   -1.6014   -0.5999 F   0  0  0  0  0  0  0  0  0  0  0  0
   -0.5283    0.2428   -0.1282 C   0  0  0  0  0  0  0  0  0  0  0  0
   -1.7346   -0.6402    0.1861 C   0  0  0  0  0  0  0  0  0  0  0  0
   -3.0551    0.0417   -0.0643 C   0  0  0  0  0  0  0  0  0  0  0  0
   -4.0082   -0.4720   -0.5785 O   0  0  0  0  0  0  0  0  0  0  0  0
   -3.0703    1.3114    0.3845 O   0  0  0  0  0  0  0  0  0  0  0  0
   -3.9513    1.6616    0.2110 H   0  0  0  0  0  0  0  0  0  0  0  0
    2.0254    0.3754   -0.1459 C   0  0  0  0  0  0  0  0  0  0  0  0
    2.0189    1.4778    0.6044 F   0  0  0  0  0  0  0  0  0  0  0  0
    2.0401    0.7425   -1.4281 F   0  0  0  0  0  0  0  0  0  0  0  0
    3.1340   -0.3040    0.1114 F   0  0  0  0  0  0  0  0  0  0  0  0
   -1.7266   -1.5526   -0.4035 H   0  0  0  0  0  0  0  0  0  0  0  0
   -1.7187   -0.9255    1.2400 H   0  0  0  0  0  0  0  0  0  0  0  0
   -0.5292    0.5385   -1.1770 H   0  0  0  0  0  0  0  0  0  0  0  0
   -0.5477    1.1495    0.4731 H   0  0  0  0  0  0  0  0  0  0  0  0
  1  2  1  0
  1  3  1  0
  1  4  1  0
  1 10  1  0
  4  5  1  0
  4 16  1  0
  4 17  1  0
  5  6  1  0
  5 14  1  0
  5 15  1  0
  6  7  2  0
  6  8  1  0
  8  9  1  0
 10 11  1  0
 10 12  1  0
 10 13  1  0
M  END
$$$$
