/home/yang/projects/t99_calc/v1/qchem_data/combined/log_fchk/2_pentene.log
     RDKit          3D

 15 14  0  0  0  0  0  0  0  0999 V2000
   -1.3137    0.2776    0.6373 C   0  0  0  0  0  0  0  0  0  0  0  0
   -1.3447   -0.6111    1.6407 F   0  0  0  0  0  0  0  0  0  0  0  0
   -1.8995    1.4119    1.0503 F   0  0  0  0  0  0  0  0  0  0  0  0
    0.1153    0.5876    0.2261 C   0  0  0  0  0  0  0  0  0  0  0  0
    0.2691    1.8290   -0.2013 F   0  0  0  0  0  0  0  0  0  0  0  0
    1.1237   -0.2727    0.2509 C   0  0  0  0  0  0  0  0  0  0  0  0
    0.9428   -1.5222    0.6512 F   0  0  0  0  0  0  0  0  0  0  0  0
    2.5601   -0.0254   -0.1501 C   0  0  0  0  0  0  0  0  0  0  0  0
    3.3665   -0.2982    0.8773 F   0  0  0  0  0  0  0  0  0  0  0  0
    2.7720    1.2255   -0.5311 F   0  0  0  0  0  0  0  0  0  0  0  0
    2.8940   -0.8372   -1.1554 F   0  0  0  0  0  0  0  0  0  0  0  0
   -2.1622   -0.2936   -0.5290 C   0  0  0  0  0  0  0  0  0  0  0  0
   -2.1514    0.5573   -1.5507 F   0  0  0  0  0  0  0  0  0  0  0  0
   -1.6519   -1.4523   -0.9326 F   0  0  0  0  0  0  0  0  0  0  0  0
   -3.4123   -0.4850   -0.1387 F   0  0  0  0  0  0  0  0  0  0  0  0
  1  3  1  0
  1  2  1  0
  4  6  2  0
  4  1  1  0
  5  4  1  0
  6  7  1  0
  8  6  1  0
  8  9  1  0
 10  8  1  0
 11  8  1  0
 12 15  1  0
 12  1  1  0
 13 12  1  0
 14 12  1  0
M  END
>  <program>  (1) 
Gaussian 16, Revision A.03

>  <basis>  (1) 
6-311+G(2d,2p) (5D, 7F)

>  <File Format>  (1) 
g03

$$$$
