/home/yang/projects/t99_calc/v1/qchem_data/combined/log_fchk/32_fts.log
     RDKit          3D

 21 20  0  0  0  0  0  0  0  0999 V2000
   -0.5758   -0.4451    0.0106 C   0  0  0  0  0  0  0  0  0  0  0  0
   -0.6740   -1.1995   -1.1113 F   0  0  0  0  0  0  0  0  0  0  0  0
   -0.7111   -1.2815    1.0666 F   0  0  0  0  0  0  0  0  0  0  0  0
    0.7628    0.2594    0.0584 C   0  0  0  0  0  0  0  0  0  0  0  0
    1.9007   -0.7507    0.0506 C   0  0  0  0  0  0  0  0  0  0  0  0
   -1.7657    0.5482    0.0272 C   0  0  0  0  0  0  0  0  0  0  0  0
   -3.1896   -0.0700   -0.0286 C   0  0  0  0  0  0  0  0  0  0  0  0
   -1.6437    1.3704   -1.0304 F   0  0  0  0  0  0  0  0  0  0  0  0
   -1.6886    1.2808    1.1512 F   0  0  0  0  0  0  0  0  0  0  0  0
   -3.3601   -0.7648   -1.1451 F   0  0  0  0  0  0  0  0  0  0  0  0
   -3.4028   -0.8627    1.0125 F   0  0  0  0  0  0  0  0  0  0  0  0
    3.4932    0.0463    0.1222 S   0  0  0  0  0  0  0  0  0  0  0  0
    4.5130   -0.9545    0.0136 O   0  0  0  0  0  1  0  0  0  0  0  0
    3.4755    1.0065    1.1768 O   0  0  0  0  0  1  0  0  0  0  0  0
    3.4935    0.8772   -1.2549 O   0  0  0  0  0  0  0  0  0  0  0  0
    4.0911    0.4333   -1.8659 H   0  0  0  0  0  0  0  0  0  0  0  0
    1.8794   -1.3958    0.9276 H   0  0  0  0  0  0  0  0  0  0  0  0
    0.8046    0.8680    0.9595 H   0  0  0  0  0  0  0  0  0  0  0  0
    0.8301    0.9217   -0.8028 H   0  0  0  0  0  0  0  0  0  0  0  0
    1.9062   -1.3721   -0.8418 H   0  0  0  0  0  0  0  0  0  0  0  0
   -4.0813    0.9150   -0.0018 F   0  0  0  0  0  0  0  0  0  0  0  0
  1  6  1  0
  1  4  1  0
  1  3  1  0
  2  1  1  0
  4 18  1  0
  5  4  1  0
  5 12  1  0
  5 17  1  0
  6  9  1  0
  7 21  1  0
  7  6  1  0
  7 11  1  0
  8  6  1  0
 10  7  1  0
 12 14  1  0
 13 12  1  0
 15 12  1  0
 16 15  1  0
 19  4  1  0
 20  5  1  0
M  RAD  2  13   2  14   2
M  END
>  <program>  (1) 
Gaussian 16, Revision A.03

>  <basis>  (1) 
6-311+G(2d,2p) (5D, 7F)

>  <File Format>  (1) 
g03

$$$$
