/home/yang/projects/t99_calc/v1/qchem_data/combined/log_fchk/32_pentene.log
     RDKit          3D

 15 14  0  0  0  0  0  0  0  0999 V2000
   -1.0291    0.4525   -0.1239 C   0  0  0  0  0  0  0  0  0  0  0  0
   -0.7611    1.4279   -1.0285 F   0  0  0  0  0  0  0  0  0  0  0  0
   -1.0906    1.0304    1.0942 F   0  0  0  0  0  0  0  0  0  0  0  0
   -2.3118   -0.2306   -0.4830 C   0  0  0  0  0  0  0  0  0  0  0  0
    0.1734   -0.5306   -0.1181 C   0  0  0  0  0  0  0  0  0  0  0  0
    1.5791    0.0877    0.1124 C   0  0  0  0  0  0  0  0  0  0  0  0
    0.2077   -1.1647   -1.3055 F   0  0  0  0  0  0  0  0  0  0  0  0
   -0.0298   -1.4397    0.8483 F   0  0  0  0  0  0  0  0  0  0  0  0
    1.6254    0.7466    1.2630 F   0  0  0  0  0  0  0  0  0  0  0  0
    1.9028    0.9141   -0.8726 F   0  0  0  0  0  0  0  0  0  0  0  0
   -3.2798   -0.4429    0.3890 C   0  0  0  0  0  0  0  0  0  0  0  0
   -3.1912   -0.1334    1.4210 H   0  0  0  0  0  0  0  0  0  0  0  0
   -4.1946   -0.9325    0.0871 H   0  0  0  0  0  0  0  0  0  0  0  0
   -2.3841   -0.5411   -1.5160 H   0  0  0  0  0  0  0  0  0  0  0  0
    2.4766   -0.8935    0.1509 F   0  0  0  0  0  0  0  0  0  0  0  0
  1  5  1  0
  1  3  1  0
  2  1  1  0
  4  1  1  0
  4 11  2  0
  5  6  1  0
  5  8  1  0
  6 15  1  0
  6  9  1  0
  7  5  1  0
 10  6  1  0
 11 12  1  0
 13 11  1  0
 14  4  1  0
M  END
>  <program>  (1) 
Gaussian 16, Revision A.03

>  <basis>  (1) 
6-311+G(2d,2p) (5D, 7F)

>  <File Format>  (1) 
g03

$$$$
