Title Card Required
     RDKit          3D

 17 16  0  0  0  0  0  0  0  0999 V2000
   -1.6506   -0.2435   -0.0001 C   0  0  0  0  0  0  0  0  0  0  0  0
   -0.3406    0.5902    0.0001 C   0  0  0  0  0  0  0  0  0  0  0  0
    0.9921   -0.2016    0.0001 C   0  0  0  0  0  0  0  0  0  0  0  0
    2.2099    0.6946   -0.0003 C   0  0  0  0  0  0  0  0  0  0  0  0
    3.5095   -0.1029   -0.0003 C   0  0  0  0  0  0  0  0  0  0  0  0
   -1.7279   -1.0095    1.0797 F   0  0  0  0  0  0  0  0  0  0  0  0
   -0.3707    1.3770    1.0919 F   0  0  0  0  0  0  0  0  0  0  0  0
    0.9898   -1.0076    1.0909 F   0  0  0  0  0  0  0  0  0  0  0  0
    0.9895   -1.0083   -1.0901 F   0  0  0  0  0  0  0  0  0  0  0  0
   -0.3705    1.3770   -1.0918 F   0  0  0  0  0  0  0  0  0  0  0  0
   -1.7279   -1.0089   -1.0803 F   0  0  0  0  0  0  0  0  0  0  0  0
    3.5843   -0.7348    0.8827 H   0  0  0  0  0  0  0  0  0  0  0  0
    4.3565    0.5807   -0.0003 H   0  0  0  0  0  0  0  0  0  0  0  0
    3.5843   -0.7349   -0.8833 H   0  0  0  0  0  0  0  0  0  0  0  0
    2.1483    1.3348   -0.8795 H   0  0  0  0  0  0  0  0  0  0  0  0
    2.1486    1.3352    0.8787 H   0  0  0  0  0  0  0  0  0  0  0  0
   -2.6872    0.5910    0.0002 F   0  0  0  0  0  0  0  0  0  0  0  0
  1  2  1  0
  1  6  1  0
  1 11  1  0
  1 17  1  0
  2  3  1  0
  2  7  1  0
  2 10  1  0
  3  4  1  0
  3  8  1  0
  3  9  1  0
  4  5  1  0
  4 15  1  0
  4 16  1  0
  5 12  1  0
  5 13  1  0
  5 14  1  0
M  END
$$$$
