Title Card Required
     RDKit          3D

 20 19  0  0  0  0  0  0  0  0999 V2000
    0.0046   -0.3951    0.1188 C   0  0  0  0  0  0  0  0  0  0  0  0
    0.1011   -0.7679    1.4185 F   0  0  0  0  0  0  0  0  0  0  0  0
    0.1293   -1.5186   -0.6285 F   0  0  0  0  0  0  0  0  0  0  0  0
   -1.3239    0.2781   -0.1435 C   0  0  0  0  0  0  0  0  0  0  0  0
   -2.4908   -0.6503    0.1896 C   0  0  0  0  0  0  0  0  0  0  0  0
   -3.8387   -0.0180   -0.0453 C   0  0  0  0  0  0  0  0  0  0  0  0
   -4.7753   -0.5642   -0.5564 O   0  0  0  0  0  0  0  0  0  0  0  0
   -3.8989    1.2467    0.4135 O   0  0  0  0  0  0  0  0  0  0  0  0
   -4.7938    1.5644    0.2492 H   0  0  0  0  0  0  0  0  0  0  0  0
    1.2108    0.5247   -0.2014 C   0  0  0  0  0  0  0  0  0  0  0  0
    2.6257   -0.0738    0.0270 C   0  0  0  0  0  0  0  0  0  0  0  0
    1.1166    1.6298    0.5598 F   0  0  0  0  0  0  0  0  0  0  0  0
    1.1355    0.8893   -1.4944 F   0  0  0  0  0  0  0  0  0  0  0  0
    2.7981   -0.4133    1.2972 F   0  0  0  0  0  0  0  0  0  0  0  0
    2.8193   -1.1400   -0.7369 F   0  0  0  0  0  0  0  0  0  0  0  0
   -2.4568   -1.5628   -0.3988 H   0  0  0  0  0  0  0  0  0  0  0  0
   -2.4504   -0.9316    1.2438 H   0  0  0  0  0  0  0  0  0  0  0  0
   -1.3704    1.1843    0.4564 H   0  0  0  0  0  0  0  0  0  0  0  0
   -1.3512    0.5700   -1.1926 H   0  0  0  0  0  0  0  0  0  0  0  0
    3.5325    0.8453   -0.2919 F   0  0  0  0  0  0  0  0  0  0  0  0
  1  2  1  0
  1  3  1  0
  1  4  1  0
  1 10  1  0
  4  5  1  0
  4 18  1  0
  4 19  1  0
  5  6  1  0
  5 16  1  0
  5 17  1  0
  6  7  2  0
  6  8  1  0
  8  9  1  0
 10 11  1  0
 10 12  1  0
 10 13  1  0
 11 14  1  0
 11 15  1  0
 11 20  1  0
M  END
$$$$
