Title Card Required
     RDKit          3D

 21 20  0  0  0  0  0  0  0  0999 V2000
   -0.0043   -0.4110   -0.0658 C   0  0  0  0  0  0  0  0  0  0  0  0
    0.0415   -1.1563   -1.1845 F   0  0  0  0  0  0  0  0  0  0  0  0
   -0.1227   -1.2412    0.9870 F   0  0  0  0  0  0  0  0  0  0  0  0
    1.3415    0.3532    0.0771 C   0  0  0  0  0  0  0  0  0  0  0  0
    1.3452    1.3596   -0.8341 F   0  0  0  0  0  0  0  0  0  0  0  0
    1.3582    0.9276    1.3047 F   0  0  0  0  0  0  0  0  0  0  0  0
    2.5414   -0.5431   -0.1073 C   0  0  0  0  0  0  0  0  0  0  0  0
   -1.2754    0.4867   -0.1510 C   0  0  0  0  0  0  0  0  0  0  0  0
   -2.6120   -0.2749    0.0913 C   0  0  0  0  0  0  0  0  0  0  0  0
   -1.3371    1.0275   -1.3742 F   0  0  0  0  0  0  0  0  0  0  0  0
   -1.2095    1.4694    0.7569 F   0  0  0  0  0  0  0  0  0  0  0  0
   -2.6841   -1.3565   -0.6759 F   0  0  0  0  0  0  0  0  0  0  0  0
   -2.7283   -0.6360    1.3613 F   0  0  0  0  0  0  0  0  0  0  0  0
    3.8537    0.1878    0.1167 C   0  0  0  0  0  0  0  0  0  0  0  0
    4.8769   -0.7576   -0.1229 O   0  0  0  0  0  0  0  0  0  0  0  0
    5.7257   -0.3324    0.0169 H   0  0  0  0  0  0  0  0  0  0  0  0
    3.9040    0.5715    1.1403 H   0  0  0  0  0  0  0  0  0  0  0  0
    3.9340    1.0373   -0.5695 H   0  0  0  0  0  0  0  0  0  0  0  0
    2.4655   -1.3799    0.5889 H   0  0  0  0  0  0  0  0  0  0  0  0
    2.5221   -0.9527   -1.1169 H   0  0  0  0  0  0  0  0  0  0  0  0
   -3.6227    0.5309   -0.2125 F   0  0  0  0  0  0  0  0  0  0  0  0
  1  2  1  0
  1  3  1  0
  1  4  1  0
  1  8  1  0
  4  5  1  0
  4  6  1  0
  4  7  1  0
  7 14  1  0
  7 19  1  0
  7 20  1  0
  8  9  1  0
  8 10  1  0
  8 11  1  0
  9 12  1  0
  9 13  1  0
  9 21  1  0
 14 15  1  0
 14 17  1  0
 14 18  1  0
 15 16  1  0
M  END
$$$$
