Title Card Required
     RDKit          3D

 20 19  0  0  0  0  0  0  0  0999 V2000
    2.3009    0.1666    0.0975 C   0  0  0  0  0  0  0  0  0  0  0  0
    0.9160   -0.5118   -0.1204 C   0  0  0  0  0  0  0  0  0  0  0  0
   -0.2899    0.4752   -0.1030 C   0  0  0  0  0  0  0  0  0  0  0  0
   -1.6888   -0.1798    0.0652 C   0  0  0  0  0  0  0  0  0  0  0  0
   -2.8245    0.7893   -0.1760 C   0  0  0  0  0  0  0  0  0  0  0  0
   -4.1870    0.1448    0.0544 C   0  0  0  0  0  0  0  0  0  0  0  0
    2.4559    1.1982   -0.7248 F   0  0  0  0  0  0  0  0  0  0  0  0
    0.9520   -1.1235   -1.3110 F   0  0  0  0  0  0  0  0  0  0  0  0
   -0.2709    1.1567   -1.2638 F   0  0  0  0  0  0  0  0  0  0  0  0
   -1.7595   -1.2276   -0.7944 F   0  0  0  0  0  0  0  0  0  0  0  0
   -1.7545   -0.6861    1.3198 F   0  0  0  0  0  0  0  0  0  0  0  0
   -0.1214    1.3566    0.9012 F   0  0  0  0  0  0  0  0  0  0  0  0
    0.7732   -1.4350    0.8393 F   0  0  0  0  0  0  0  0  0  0  0  0
    2.4319    0.5866    1.3479 F   0  0  0  0  0  0  0  0  0  0  0  0
   -4.3401   -0.7011   -0.6135 H   0  0  0  0  0  0  0  0  0  0  0  0
   -4.9718    0.8740   -0.1380 H   0  0  0  0  0  0  0  0  0  0  0  0
   -4.2914   -0.2034    1.0802 H   0  0  0  0  0  0  0  0  0  0  0  0
   -2.6801    1.6393    0.4910 H   0  0  0  0  0  0  0  0  0  0  0  0
   -2.7371    1.1544   -1.1978 H   0  0  0  0  0  0  0  0  0  0  0  0
    3.2555   -0.7224   -0.1508 F   0  0  0  0  0  0  0  0  0  0  0  0
  1  2  1  0
  1  7  1  0
  1 14  1  0
  1 20  1  0
  2  3  1  0
  2  8  1  0
  2 13  1  0
  3  4  1  0
  3  9  1  0
  3 12  1  0
  4  5  1  0
  4 10  1  0
  4 11  1  0
  5  6  1  0
  5 18  1  0
  5 19  1  0
  6 15  1  0
  6 16  1  0
  6 17  1  0
M  END
$$$$
