/home/yang/projects/t99_calc/v1/qchem_data/combined/log_fchk/51_hexene.log
     RDKit          3D

 18 17  0  0  0  0  0  0  0  0999 V2000
    1.5299    0.4238    0.3261 C   0  0  0  0  0  0  0  0  0  0  0  0
    1.5189    0.4638    1.6719 F   0  0  0  0  0  0  0  0  0  0  0  0
    1.4979    1.6881   -0.1389 F   0  0  0  0  0  0  0  0  0  0  0  0
    2.7906   -0.2574   -0.1505 C   0  0  0  0  0  0  0  0  0  0  0  0
    2.9443   -1.4580    0.4126 F   0  0  0  0  0  0  0  0  0  0  0  0
    0.2327   -0.2982   -0.1532 C   0  0  0  0  0  0  0  0  0  0  0  0
   -1.0718    0.5374    0.0243 C   0  0  0  0  0  0  0  0  0  0  0  0
   -2.3809   -0.3005   -0.0723 C   0  0  0  0  0  0  0  0  0  0  0  0
    0.1121   -1.4494    0.5234 F   0  0  0  0  0  0  0  0  0  0  0  0
    0.3674   -0.5803   -1.4591 F   0  0  0  0  0  0  0  0  0  0  0  0
   -1.1194    1.4712   -0.9337 F   0  0  0  0  0  0  0  0  0  0  0  0
   -1.0692    1.1396    1.2210 F   0  0  0  0  0  0  0  0  0  0  0  0
   -2.5235   -1.0804    0.9890 F   0  0  0  0  0  0  0  0  0  0  0  0
   -2.3757   -1.0516   -1.1675 F   0  0  0  0  0  0  0  0  0  0  0  0
    3.6552    0.2381   -1.0064 C   0  0  0  0  0  0  0  0  0  0  0  0
    3.4872    1.2091   -1.4418 H   0  0  0  0  0  0  0  0  0  0  0  0
    4.5367   -0.3239   -1.2749 H   0  0  0  0  0  0  0  0  0  0  0  0
   -3.4149    0.5300   -0.1290 F   0  0  0  0  0  0  0  0  0  0  0  0
  1  2  1  0
  3  1  1  0
  4  1  1  0
  4  5  1  0
  6  7  1  0
  6  1  1  0
  6  9  1  0
  7 12  1  0
  8  7  1  0
  8 13  1  0
 10  6  1  0
 11  7  1  0
 14  8  1  0
 15  4  2  0
 16 15  1  0
 17 15  1  0
 18  8  1  0
M  END
>  <program>  (1) 
Gaussian 16, Revision A.03

>  <basis>  (1) 
6-311+G(2d,2p) (5D, 7F)

>  <File Format>  (1) 
g03

$$$$
