Title Card Required
     RDKit          3D

 21 20  0  0  0  0  0  0  0  0999 V2000
   -2.4015   -0.3384    0.2731 C   0  0  0  0  0  0  0  0  0  0  0  0
   -2.3698   -0.7599    1.5604 F   0  0  0  0  0  0  0  0  0  0  0  0
   -2.3788   -1.4316   -0.5203 F   0  0  0  0  0  0  0  0  0  0  0  0
   -3.6282    0.4908    0.0519 C   0  0  0  0  0  0  0  0  0  0  0  0
   -1.0980    0.4686    0.0012 C   0  0  0  0  0  0  0  0  0  0  0  0
    0.2221   -0.3641    0.0257 C   0  0  0  0  0  0  0  0  0  0  0  0
    1.5020    0.5165    0.1787 C   0  0  0  0  0  0  0  0  0  0  0  0
    2.8248   -0.2123   -0.2013 C   0  0  0  0  0  0  0  0  0  0  0  0
   -1.0215    1.4446    0.9259 F   0  0  0  0  0  0  0  0  0  0  0  0
   -1.2003    1.0370   -1.2104 F   0  0  0  0  0  0  0  0  0  0  0  0
    0.3066   -1.0529   -1.1221 F   0  0  0  0  0  0  0  0  0  0  0  0
    0.1968   -1.2307    1.0451 F   0  0  0  0  0  0  0  0  0  0  0  0
    1.6073    0.9058    1.4543 F   0  0  0  0  0  0  0  0  0  0  0  0
    1.4046    1.6010   -0.6036 F   0  0  0  0  0  0  0  0  0  0  0  0
    2.8991   -0.4078   -1.5097 F   0  0  0  0  0  0  0  0  0  0  0  0
    2.9111   -1.3824    0.4195 F   0  0  0  0  0  0  0  0  0  0  0  0
   -4.4842    0.2638   -0.9266 C   0  0  0  0  0  0  0  0  0  0  0  0
   -4.3339   -0.5376   -1.6363 H   0  0  0  0  0  0  0  0  0  0  0  0
   -5.3662    0.8778   -1.0398 H   0  0  0  0  0  0  0  0  0  0  0  0
   -3.7626    1.2925    0.7654 H   0  0  0  0  0  0  0  0  0  0  0  0
    3.8494    0.5455    0.1713 F   0  0  0  0  0  0  0  0  0  0  0  0
  1  2  1  0
  1  3  1  0
  1  4  1  0
  1  5  1  0
  4 17  2  0
  4 20  1  0
  5  6  1  0
  5  9  1  0
  5 10  1  0
  6  7  1  0
  6 11  1  0
  6 12  1  0
  7  8  1  0
  7 13  1  0
  7 14  1  0
  8 15  1  0
  8 16  1  0
  8 21  1  0
 17 18  1  0
 17 19  1  0
M  END
$$$$
