Title Card Required
     RDKit          3D

 21 20  0  0  0  0  0  0  0  0999 V2000
   -2.1684   -0.4301    0.3477 C   0  0  0  0  0  0  0  0  0  0  0  0
   -2.2017   -0.3435    1.6908 F   0  0  0  0  0  0  0  0  0  0  0  0
   -2.0303   -1.7264    0.0061 F   0  0  0  0  0  0  0  0  0  0  0  0
   -3.4572    0.1081   -0.2267 C   0  0  0  0  0  0  0  0  0  0  0  0
   -3.7148    1.3418    0.2132 F   0  0  0  0  0  0  0  0  0  0  0  0
   -0.9101    0.3391   -0.1635 C   0  0  0  0  0  0  0  0  0  0  0  0
    0.4434   -0.3857    0.1227 C   0  0  0  0  0  0  0  0  0  0  0  0
    1.6796    0.5608    0.0141 C   0  0  0  0  0  0  0  0  0  0  0  0
    3.0405   -0.1856   -0.1157 C   0  0  0  0  0  0  0  0  0  0  0  0
   -0.8899    1.5497    0.4115 F   0  0  0  0  0  0  0  0  0  0  0  0
   -1.0261    0.4930   -1.4919 F   0  0  0  0  0  0  0  0  0  0  0  0
    0.5852   -1.3851   -0.7599 F   0  0  0  0  0  0  0  0  0  0  0  0
    0.4231   -0.9011    1.3581 F   0  0  0  0  0  0  0  0  0  0  0  0
    1.7387    1.3216    1.1121 F   0  0  0  0  0  0  0  0  0  0  0  0
    1.5505    1.3500   -1.0618 F   0  0  0  0  0  0  0  0  0  0  0  0
    3.1528   -0.7628   -1.3030 F   0  0  0  0  0  0  0  0  0  0  0  0
    3.1594   -1.1089    0.8307 F   0  0  0  0  0  0  0  0  0  0  0  0
   -4.2549   -0.5289   -1.0536 C   0  0  0  0  0  0  0  0  0  0  0  0
   -4.0034   -1.5216   -1.3882 H   0  0  0  0  0  0  0  0  0  0  0  0
   -5.1645   -0.0617   -1.3990 H   0  0  0  0  0  0  0  0  0  0  0  0
    4.0231    0.6960    0.0207 F   0  0  0  0  0  0  0  0  0  0  0  0
  1  2  1  0
  1  3  1  0
  1  4  1  0
  1  6  1  0
  4  5  1  0
  4 18  2  0
  6  7  1  0
  6 10  1  0
  6 11  1  0
  7  8  1  0
  7 12  1  0
  7 13  1  0
  8  9  1  0
  8 14  1  0
  8 15  1  0
  9 16  1  0
  9 17  1  0
  9 21  1  0
 18 19  1  0
 18 20  1  0
M  END
$$$$
