/home/yang/projects/t99_calc/v1/qchem_data/combined/log_fchk/62_ftsa.log
     RDKit          3D

 31 30  0  0  0  0  0  0  0  0999 V2000
   -1.5885   -0.5762    0.2399 C   0  0  0  0  0  0  0  0  0  0  0  0
   -1.5603   -0.8359    1.5682 F   0  0  0  0  0  0  0  0  0  0  0  0
   -1.5192   -1.7663   -0.4050 F   0  0  0  0  0  0  0  0  0  0  0  0
   -2.8609    0.1567   -0.1251 C   0  0  0  0  0  0  0  0  0  0  0  0
   -4.0852   -0.6407    0.2930 C   0  0  0  0  0  0  0  0  0  0  0  0
   -0.3147    0.2400   -0.1168 C   0  0  0  0  0  0  0  0  0  0  0  0
    1.0284   -0.5507   -0.0171 C   0  0  0  0  0  0  0  0  0  0  0  0
   -0.2645    1.3025    0.7077 F   0  0  0  0  0  0  0  0  0  0  0  0
   -0.4380    0.6874   -1.3779 F   0  0  0  0  0  0  0  0  0  0  0  0
    1.0186   -1.3151    1.0807 F   0  0  0  0  0  0  0  0  0  0  0  0
    1.1329   -1.3386   -1.0958 F   0  0  0  0  0  0  0  0  0  0  0  0
    2.2821    0.3814    0.0516 C   0  0  0  0  0  0  0  0  0  0  0  0
    3.6121   -0.3542   -0.3035 C   0  0  0  0  0  0  0  0  0  0  0  0
    3.6323   -1.5591    0.2829 F   0  0  0  0  0  0  0  0  0  0  0  0
    3.6770   -0.5103   -1.6299 F   0  0  0  0  0  0  0  0  0  0  0  0
    2.1281    1.3979   -0.8073 F   0  0  0  0  0  0  0  0  0  0  0  0
    2.3759    0.8744    1.2940 F   0  0  0  0  0  0  0  0  0  0  0  0
   -5.6057    0.1818   -0.1537 S   0  0  0  0  0  0  0  0  0  0  0  0
   -6.6806   -0.6356    0.3348 O   0  0  0  0  0  0  0  0  0  0  0  0
   -5.5103    0.5777   -1.5330 O   0  0  0  0  0  0  0  0  0  0  0  0
    4.8950    0.4062    0.1459 C   0  0  0  0  0  0  0  0  0  0  0  0
    5.9514   -0.1853   -0.3968 F   0  0  0  0  0  0  0  0  0  0  0  0
    5.0246    0.3778    1.4639 F   0  0  0  0  0  0  0  0  0  0  0  0
    4.8551    1.6694   -0.2613 F   0  0  0  0  0  0  0  0  0  0  0  0
   -5.5464    1.5738    0.7532 N   0  0  0  0  0  0  0  0  0  0  0  0
   -5.6504    2.3786    0.1512 H   0  0  0  0  0  0  0  0  0  0  0  0
   -6.2514    1.5529    1.4768 H   0  0  0  0  0  0  0  0  0  0  0  0
   -4.1394   -1.6030   -0.2141 H   0  0  0  0  0  0  0  0  0  0  0  0
   -2.8698    0.3253   -1.1996 H   0  0  0  0  0  0  0  0  0  0  0  0
   -2.8495    1.1247    0.3751 H   0  0  0  0  0  0  0  0  0  0  0  0
   -4.1309   -0.8065    1.3667 H   0  0  0  0  0  0  0  0  0  0  0  0
  1  2  1  0
  3  1  1  0
  4  1  1  0
  4  5  1  0
  4 30  1  0
  5 31  1  0
  6  7  1  0
  6  1  1  0
  6  8  1  0
  7 12  1  0
  7 10  1  0
  9  6  1  0
 11  7  1  0
 12 17  1  0
 13 12  1  0
 13 21  1  0
 13 14  1  0
 15 13  1  0
 16 12  1  0
 18  5  1  0
 18 19  2  0
 18 25  1  0
 20 18  2  0
 21 23  1  0
 22 21  1  0
 24 21  1  0
 25 27  1  0
 26 25  1  0
 28  5  1  0
 29  4  1  0
M  END
>  <program>  (1) 
Gaussian 16, Revision A.03

>  <basis>  (1) 
6-311+G(2d,2p) (5D, 7F)

>  <File Format>  (1) 
g03

$$$$
