/home/yang/projects/t99_calc/v1/qchem_data/combined/log_fchk/62_fts.log
     RDKit          3D

 30 29  0  0  0  0  0  0  0  0999 V2000
   -1.5913   -0.5627    0.2370 C   0  0  0  0  0  0  0  0  0  0  0  0
   -1.5679   -0.8204    1.5659 F   0  0  0  0  0  0  0  0  0  0  0  0
   -1.5273   -1.7540   -0.4056 F   0  0  0  0  0  0  0  0  0  0  0  0
   -2.8619    0.1733   -0.1305 C   0  0  0  0  0  0  0  0  0  0  0  0
   -4.0851   -0.6312    0.2837 C   0  0  0  0  0  0  0  0  0  0  0  0
   -0.3152    0.2496   -0.1198 C   0  0  0  0  0  0  0  0  0  0  0  0
    1.0249   -0.5459   -0.0179 C   0  0  0  0  0  0  0  0  0  0  0  0
   -0.2637    1.3121    0.7039 F   0  0  0  0  0  0  0  0  0  0  0  0
   -0.4376    0.6949   -1.3813 F   0  0  0  0  0  0  0  0  0  0  0  0
    1.0103   -1.3084    1.0814 F   0  0  0  0  0  0  0  0  0  0  0  0
    1.1264   -1.3363   -1.0949 F   0  0  0  0  0  0  0  0  0  0  0  0
    2.2818    0.3819    0.0504 C   0  0  0  0  0  0  0  0  0  0  0  0
    3.6093   -0.3593   -0.3023 C   0  0  0  0  0  0  0  0  0  0  0  0
    3.6240   -1.5631    0.2865 F   0  0  0  0  0  0  0  0  0  0  0  0
    3.6744   -0.5181   -1.6282 F   0  0  0  0  0  0  0  0  0  0  0  0
    2.1314    1.3972   -0.8104 F   0  0  0  0  0  0  0  0  0  0  0  0
    2.3755    0.8764    1.2921 F   0  0  0  0  0  0  0  0  0  0  0  0
   -5.6010    0.1920   -0.1645 S   0  0  0  0  0  0  0  0  0  0  0  0
   -6.7044   -0.5714    0.3388 O   0  0  0  0  0  1  0  0  0  0  0  0
   -5.5135    0.5982   -1.5289 O   0  0  0  0  0  1  0  0  0  0  0  0
   -5.5066    1.5318    0.7202 O   0  0  0  0  0  0  0  0  0  0  0  0
   -6.1319    1.4484    1.4478 H   0  0  0  0  0  0  0  0  0  0  0  0
    4.8946    0.3973    0.1470 C   0  0  0  0  0  0  0  0  0  0  0  0
    5.9492   -0.1994   -0.3933 F   0  0  0  0  0  0  0  0  0  0  0  0
    5.0223    0.3708    1.4652 F   0  0  0  0  0  0  0  0  0  0  0  0
    4.8596    1.6597   -0.2627 F   0  0  0  0  0  0  0  0  0  0  0  0
   -4.1341   -1.5903   -0.2302 H   0  0  0  0  0  0  0  0  0  0  0  0
   -2.8694    0.3445   -1.2044 H   0  0  0  0  0  0  0  0  0  0  0  0
   -2.8510    1.1416    0.3683 H   0  0  0  0  0  0  0  0  0  0  0  0
   -4.1329   -0.8051    1.3559 H   0  0  0  0  0  0  0  0  0  0  0  0
  1  2  1  0
  3  1  1  0
  4  1  1  0
  4  5  1  0
  4 29  1  0
  5 30  1  0
  6  7  1  0
  6  1  1  0
  6  8  1  0
  7 12  1  0
  7 10  1  0
  9  6  1  0
 11  7  1  0
 12 17  1  0
 13 12  1  0
 13 23  1  0
 13 14  1  0
 15 13  1  0
 16 12  1  0
 18  5  1  0
 18 19  1  0
 18 21  1  0
 20 18  1  0
 21 22  1  0
 23 25  1  0
 24 23  1  0
 26 23  1  0
 27  5  1  0
 28  4  1  0
M  RAD  2  19   2  20   2
M  END
>  <program>  (1) 
Gaussian 16, Revision A.03

>  <basis>  (1) 
6-311+G(2d,2p) (5D, 7F)

>  <File Format>  (1) 
g03

$$$$
