Title Card Required
     RDKit          3D

 24 23  0  0  0  0  0  0  0  0999 V2000
    3.0676    0.2334    0.3433 C   0  0  0  0  0  0  0  0  0  0  0  0
    3.0212    0.4861    1.6736 F   0  0  0  0  0  0  0  0  0  0  0  0
    3.1248    1.4195   -0.3009 F   0  0  0  0  0  0  0  0  0  0  0  0
    4.2553   -0.6272    0.0426 C   0  0  0  0  0  0  0  0  0  0  0  0
    1.7324   -0.4586   -0.0604 C   0  0  0  0  0  0  0  0  0  0  0  0
    0.4571    0.4363    0.0439 C   0  0  0  0  0  0  0  0  0  0  0  0
   -0.8710   -0.3894    0.0506 C   0  0  0  0  0  0  0  0  0  0  0  0
   -2.1272    0.4668   -0.3033 C   0  0  0  0  0  0  0  0  0  0  0  0
    1.5782   -1.5396    0.7283 F   0  0  0  0  0  0  0  0  0  0  0  0
    1.8411   -0.8710   -1.3328 F   0  0  0  0  0  0  0  0  0  0  0  0
    0.4412    1.2702   -1.0060 F   0  0  0  0  0  0  0  0  0  0  0  0
    0.5002    1.1579    1.1695 F   0  0  0  0  0  0  0  0  0  0  0  0
   -1.0367   -0.9174    1.2711 F   0  0  0  0  0  0  0  0  0  0  0  0
   -0.7833   -1.3837   -0.8430 F   0  0  0  0  0  0  0  0  0  0  0  0
   -2.1496    0.6748   -1.6243 F   0  0  0  0  0  0  0  0  0  0  0  0
   -2.0630    1.6478    0.3267 F   0  0  0  0  0  0  0  0  0  0  0  0
    5.1496   -0.3241   -0.8793 C   0  0  0  0  0  0  0  0  0  0  0  0
   -3.4785   -0.1997    0.0915 C   0  0  0  0  0  0  0  0  0  0  0  0
   -3.5361   -1.4451   -0.3651 F   0  0  0  0  0  0  0  0  0  0  0  0
   -4.4701    0.4993   -0.4468 F   0  0  0  0  0  0  0  0  0  0  0  0
   -3.6348   -0.2108    1.4068 F   0  0  0  0  0  0  0  0  0  0  0  0
    5.0623    0.5693   -1.4818 H   0  0  0  0  0  0  0  0  0  0  0  0
    6.0009   -0.9668   -1.0525 H   0  0  0  0  0  0  0  0  0  0  0  0
    4.3268   -1.5205    0.6482 H   0  0  0  0  0  0  0  0  0  0  0  0
  1  2  1  0
  1  3  1  0
  1  4  1  0
  1  5  1  0
  4 17  2  0
  4 24  1  0
  5  6  1  0
  5  9  1  0
  5 10  1  0
  6  7  1  0
  6 11  1  0
  6 12  1  0
  7  8  1  0
  7 13  1  0
  7 14  1  0
  8 15  1  0
  8 16  1  0
  8 18  1  0
 17 22  1  0
 17 23  1  0
 18 19  1  0
 18 20  1  0
 18 21  1  0
M  END
$$$$
