Title Card Required
     RDKit          3D

 27 26  0  0  0  0  0  0  0  0999 V2000
    1.3571   -0.4274   -0.1628 C   0  0  0  0  0  0  0  0  0  0  0  0
    1.4277   -0.8789   -1.4270 F   0  0  0  0  0  0  0  0  0  0  0  0
    1.2426   -1.4863    0.6597 F   0  0  0  0  0  0  0  0  0  0  0  0
    2.6890    0.2995    0.1772 C   0  0  0  0  0  0  0  0  0  0  0  0
    2.6776    1.5005   -0.4563 F   0  0  0  0  0  0  0  0  0  0  0  0
    2.6925    0.5509    1.5088 F   0  0  0  0  0  0  0  0  0  0  0  0
    3.9051   -0.5034   -0.2150 C   0  0  0  0  0  0  0  0  0  0  0  0
    0.0728    0.4531   -0.0425 C   0  0  0  0  0  0  0  0  0  0  0  0
   -1.2412   -0.3899    0.0452 C   0  0  0  0  0  0  0  0  0  0  0  0
    0.0036    1.2478   -1.1199 F   0  0  0  0  0  0  0  0  0  0  0  0
    0.1494    1.2150    1.0546 F   0  0  0  0  0  0  0  0  0  0  0  0
   -1.1724   -1.4136   -0.8163 F   0  0  0  0  0  0  0  0  0  0  0  0
   -1.3518   -0.8768    1.2887 F   0  0  0  0  0  0  0  0  0  0  0  0
   -2.5227    0.4361   -0.2891 C   0  0  0  0  0  0  0  0  0  0  0  0
   -3.8478   -0.2331    0.1830 C   0  0  0  0  0  0  0  0  0  0  0  0
   -3.9041   -1.4959   -0.2232 F   0  0  0  0  0  0  0  0  0  0  0  0
   -3.9535   -0.1954    1.5029 F   0  0  0  0  0  0  0  0  0  0  0  0
   -4.8696    0.4311   -0.3426 F   0  0  0  0  0  0  0  0  0  0  0  0
   -2.4509    1.6400    0.2953 F   0  0  0  0  0  0  0  0  0  0  0  0
   -2.6001    0.5956   -1.6146 F   0  0  0  0  0  0  0  0  0  0  0  0
    5.2033    0.1681    0.1971 C   0  0  0  0  0  0  0  0  0  0  0  0
    6.2439   -0.6695   -0.2649 O   0  0  0  0  0  0  0  0  0  0  0  0
    7.0845   -0.2801   -0.0150 H   0  0  0  0  0  0  0  0  0  0  0  0
    5.2430    0.2818    1.2848 H   0  0  0  0  0  0  0  0  0  0  0  0
    5.2714    1.1646   -0.2517 H   0  0  0  0  0  0  0  0  0  0  0  0
    3.8398   -1.4891    0.2484 H   0  0  0  0  0  0  0  0  0  0  0  0
    3.8981   -0.6470   -1.2951 H   0  0  0  0  0  0  0  0  0  0  0  0
  1  2  1  0
  1  3  1  0
  1  4  1  0
  1  8  1  0
  4  5  1  0
  4  6  1  0
  4  7  1  0
  7 21  1  0
  7 26  1  0
  7 27  1  0
  8  9  1  0
  8 10  1  0
  8 11  1  0
  9 12  1  0
  9 13  1  0
  9 14  1  0
 14 15  1  0
 14 19  1  0
 14 20  1  0
 15 16  1  0
 15 17  1  0
 15 18  1  0
 21 22  1  0
 21 24  1  0
 21 25  1  0
 22 23  1  0
M  END
$$$$
