/home/yang/projects/t99_calc/v1/qchem_data/combined/log_fchk/62rh.log
     RDKit          3D

 26 25  0  0  0  0  0  0  0  0999 V2000
    3.5528    0.1757    0.1960 C   0  0  0  0  0  0  0  0  0  0  0  0
    2.2137   -0.4908   -0.2388 C   0  0  0  0  0  0  0  0  0  0  0  0
    0.9533    0.3948    0.0135 C   0  0  0  0  0  0  0  0  0  0  0  0
   -0.3838   -0.4149   -0.0257 C   0  0  0  0  0  0  0  0  0  0  0  0
   -1.6410    0.4892   -0.2290 C   0  0  0  0  0  0  0  0  0  0  0  0
   -2.9989   -0.1672    0.1472 C   0  0  0  0  0  0  0  0  0  0  0  0
   -4.1900    0.6441   -0.3117 C   0  0  0  0  0  0  0  0  0  0  0  0
   -5.5112    0.0177    0.1212 C   0  0  0  0  0  0  0  0  0  0  0  0
    4.5603   -0.5564   -0.2631 F   0  0  0  0  0  0  0  0  0  0  0  0
    3.6504    1.4006   -0.3072 F   0  0  0  0  0  0  0  0  0  0  0  0
    2.3003   -0.7558   -1.5468 F   0  0  0  0  0  0  0  0  0  0  0  0
    0.9248    1.3496   -0.9262 F   0  0  0  0  0  0  0  0  0  0  0  0
   -0.3260   -1.2914   -1.0385 F   0  0  0  0  0  0  0  0  0  0  0  0
   -1.6827    0.8441   -1.5261 F   0  0  0  0  0  0  0  0  0  0  0  0
   -3.0219   -1.4086   -0.4014 F   0  0  0  0  0  0  0  0  0  0  0  0
   -3.0212   -0.3226    1.4923 F   0  0  0  0  0  0  0  0  0  0  0  0
   -1.5023    1.6063    0.5097 F   0  0  0  0  0  0  0  0  0  0  0  0
   -0.4921   -1.0881    1.1252 F   0  0  0  0  0  0  0  0  0  0  0  0
    1.0648    0.9744    1.2165 F   0  0  0  0  0  0  0  0  0  0  0  0
    2.1014   -1.6427    0.4367 F   0  0  0  0  0  0  0  0  0  0  0  0
    3.6440    0.2391    1.5160 F   0  0  0  0  0  0  0  0  0  0  0  0
   -5.6256   -0.9832   -0.2912 H   0  0  0  0  0  0  0  0  0  0  0  0
   -6.3380    0.6279   -0.2376 H   0  0  0  0  0  0  0  0  0  0  0  0
   -5.5822   -0.0464    1.2052 H   0  0  0  0  0  0  0  0  0  0  0  0
   -4.0835    1.6478    0.1000 H   0  0  0  0  0  0  0  0  0  0  0  0
   -4.1377    0.7259   -1.3959 H   0  0  0  0  0  0  0  0  0  0  0  0
  1 21  1  0
  2  3  1  0
  2  1  1  0
  2 20  1  0
  3 19  1  0
  4  3  1  0
  4 18  1  0
  5  4  1  0
  5  6  1  0
  5 17  1  0
  6 16  1  0
  7 25  1  0
  7  8  1  0
  7  6  1  0
  8 24  1  0
  9  1  1  0
 10  1  1  0
 11  2  1  0
 12  3  1  0
 13  4  1  0
 14  5  1  0
 15  6  1  0
 22  8  1  0
 23  8  1  0
 26  7  1  0
M  END
>  <program>  (1) 
Gaussian 16, Revision A.03

>  <basis>  (1) 
6-311+G(2d,2p) (5D, 7F)

>  <File Format>  (1) 
g03

$$$$
