Title Card Required
     RDKit          3D

 14 13  0  0  0  0  0  0  0  0999 V2000
   -1.7822    0.0252    0.0914 C   0  0  0  0  0  0  0  0  0  0  0  0
   -2.6111   -1.0107    0.0600 F   0  0  0  0  0  0  0  0  0  0  0  0
   -1.9653    0.6795    1.2291 F   0  0  0  0  0  0  0  0  0  0  0  0
   -2.0668    0.8318   -0.9244 F   0  0  0  0  0  0  0  0  0  0  0  0
   -0.3208   -0.4986   -0.0185 C   0  0  0  0  0  0  0  0  0  0  0  0
   -0.0507   -1.1769    1.1055 F   0  0  0  0  0  0  0  0  0  0  0  0
   -0.2678   -1.3392   -1.0587 F   0  0  0  0  0  0  0  0  0  0  0  0
    0.7492    0.6106   -0.2222 C   0  0  0  0  0  0  0  0  0  0  0  0
    0.4991    1.6345    0.6134 F   0  0  0  0  0  0  0  0  0  0  0  0
    0.6587    1.0628   -1.4857 F   0  0  0  0  0  0  0  0  0  0  0  0
    2.2125    0.1780    0.0015 C   0  0  0  0  0  0  0  0  0  0  0  0
    2.4757   -0.9351   -0.7053 F   0  0  0  0  0  0  0  0  0  0  0  0
    2.4369   -0.0663    1.3019 F   0  0  0  0  0  0  0  0  0  0  0  0
    2.8688    0.9850   -0.3341 H   0  0  0  0  0  0  0  0  0  0  0  0
  1  2  1  0
  1  3  1  0
  1  4  1  0
  1  5  1  0
  5  6  1  0
  5  7  1  0
  5  8  1  0
  8  9  1  0
  8 10  1  0
  8 11  1  0
 11 12  1  0
 11 13  1  0
 11 14  1  0
M  END
$$$$
