Title Card Required
     RDKit          3D

 14 13  0  0  1  0  0  0  0  0999 V2000
    2.5989   -0.8212    0.8048 F   0  0  0  0  0  0  0  0  0  0  0  0
    2.1872    0.1329    0.0041 C   0  0  0  0  0  3  0  0  0  0  0  0
    2.5609   -0.0790   -1.2403 F   0  0  0  0  0  0  0  0  0  0  0  0
   -0.3115   -0.4657   -0.0750 C   0  0  0  0  0  0  0  0  0  0  0  0
   -0.1770   -1.4296    0.8471 F   0  0  0  0  0  0  0  0  0  0  0  0
   -0.0870   -1.0001   -1.2870 F   0  0  0  0  0  0  0  0  0  0  0  0
    0.6677    0.9607    1.5253 F   0  0  0  0  0  0  0  0  0  0  0  0
   -1.7919    0.0125   -0.0432 C   0  0  0  0  0  0  0  0  0  0  0  0
   -2.0659    0.7877   -1.0814 F   0  0  0  0  0  0  0  0  0  0  0  0
   -2.0499    0.6766    1.0761 F   0  0  0  0  0  0  0  0  0  0  0  0
   -2.5835   -1.0550   -0.0955 F   0  0  0  0  0  0  0  0  0  0  0  0
    0.7621    0.6280    0.1996 C   0  0  1  0  0  0  0  0  0  0  0  0
    0.4911    1.6852   -0.6088 O   0  0  0  0  0  0  0  0  0  0  0  0
    1.2196    2.3109   -0.5860 H   0  0  0  0  0  0  0  0  0  0  0  0
  1  2  1  0
  2  3  1  0
  2 12  1  0
  4  5  1  0
  4  6  1  0
  4  8  1  0
  4 12  1  0
  8  9  1  0
  8 10  1  0
  8 11  1  0
 12  7  1  1
 12 13  1  0
 13 14  1  0
M  RAD  1   2   2
M  END
$$$$
