/home/yang/projects/t99_calc/v1/qchem_data/combined/log_fchk/c2f3_o.log
     RDKit          3D

  6  5  0  0  0  0  0  0  0  0999 V2000
    0.6429    0.0093    0.0004 C   0  0  0  0  0  3  0  0  0  0  0  0
    1.2672   -1.1287    0.0002 F   0  0  0  0  0  0  0  0  0  0  0  0
    1.4228    1.0426   -0.0004 F   0  0  0  0  0  0  0  0  0  0  0  0
   -1.3747   -1.0578   -0.0004 F   0  0  0  0  0  0  0  0  0  0  0  0
   -0.7765    0.1446    0.0002 C   0  0  0  0  0  0  0  0  0  0  0  0
   -1.3795    1.1714    0.0003 O   0  0  0  0  0  0  0  0  0  0  0  0
  2  1  1  0
  3  1  1  0
  4  5  1  0
  5  6  2  0
  5  1  1  0
M  RAD  1   1   2
M  END
>  <program>  (1) 
Gaussian 16, Revision C.02

>  <basis>  (1) 
6-311+G(2d,2p) (5D, 7F)

>  <File Format>  (1) 
g03

$$$$
