/home/yang/projects/t99_calc/v1/qchem_data/combined/log_fchk/c2f4_oh.log
     RDKit          3D

  8  7  0  0  0  0  0  0  0  0999 V2000
    0.8617    0.0343   -0.3533 C   0  0  0  0  0  3  0  0  0  0  0  0
    1.5369   -1.0517   -0.0506 F   0  0  0  0  0  0  0  0  0  0  0  0
    1.4932    1.1231    0.0340 F   0  0  0  0  0  0  0  0  0  0  0  0
   -0.7901   -0.0611    1.3257 F   0  0  0  0  0  0  0  0  0  0  0  0
   -1.1249   -1.1384   -0.5300 F   0  0  0  0  0  0  0  0  0  0  0  0
   -0.6191    0.0023   -0.0048 C   0  0  0  0  0  0  0  0  0  0  0  0
   -1.1751    1.1904   -1.3832 H   0  0  0  0  0  0  0  0  0  0  0  0
   -1.2895    1.0929   -0.4350 O   0  0  0  0  0  0  0  0  0  0  0  0
  1  2  1  0
  1  6  1  0
  1  3  1  0
  5  6  1  0
  6  4  1  0
  7  8  1  0
  8  6  1  0
M  RAD  1   1   2
M  END
>  <program>  (1) 
Gaussian 16, Revision A.03

>  <basis>  (1) 
6-311+G(2d,2p) (5D, 7F)

>  <File Format>  (1) 
g03

$$$$
