/home/yang/projects/t99_calc/v1/qchem_data/combined/log_fchk/c2f4.log
     RDKit          3D

  6  5  0  0  0  0  0  0  0  0999 V2000
    0.6588   -0.0001   -0.0000 C   0  0  0  0  0  0  0  0  0  0  0  0
   -0.6588   -0.0001   -0.0000 C   0  0  0  0  0  0  0  0  0  0  0  0
   -1.3799    1.0957    0.0000 F   0  0  0  0  0  0  0  0  0  0  0  0
    1.3801   -1.0956    0.0000 F   0  0  0  0  0  0  0  0  0  0  0  0
   -1.3801   -1.0956   -0.0000 F   0  0  0  0  0  0  0  0  0  0  0  0
    1.3799    1.0956   -0.0000 F   0  0  0  0  0  0  0  0  0  0  0  0
  1  6  1  0
  1  4  1  0
  2  1  2  0
  2  5  1  0
  2  3  1  0
M  END
>  <program>  (1) 
Gaussian 16, Revision A.03

>  <basis>  (1) 
6-311+G(2d,2p) (5D, 7F)

>  <File Format>  (1) 
g03

$$$$
