/home/yang/projects/t99_calc/v1/qchem_data/combined/log_fchk/c2f4h2o_prod.log
     RDKit          3D

  9  8  0  0  0  0  0  0  0  0999 V2000
   -0.6277   -0.0136   -0.0125 C   0  0  0  0  0  0  0  0  0  0  0  0
    0.9285    0.0086   -1.5359 H   0  0  0  0  0  0  0  0  0  0  0  0
   -1.2349   -1.0456   -0.6093 F   0  0  0  0  0  0  0  0  0  0  0  0
   -0.6904   -0.2073    1.3233 F   0  0  0  0  0  0  0  0  0  0  0  0
    1.4207    1.1274    0.0478 F   0  0  0  0  0  0  0  0  0  0  0  0
    1.4966   -1.0622    0.0478 F   0  0  0  0  0  0  0  0  0  0  0  0
    0.8468    0.0005   -0.4489 C   0  0  0  0  0  0  0  0  0  0  0  0
   -0.8771    1.8699    0.0457 H   0  0  0  0  0  0  0  0  0  0  0  0
   -1.2868    1.1112   -0.3785 O   0  0  0  0  0  0  0  0  0  0  0  0
  1  4  1  0
  2  7  1  0
  3  1  1  0
  7  1  1  0
  7  5  1  0
  7  6  1  0
  9  1  1  0
  9  8  1  0
M  END
>  <program>  (1) 
Gaussian 16, Revision A.03

>  <basis>  (1) 
6-311+G(2d,2p) (5D, 7F)

>  <File Format>  (1) 
g03

$$$$
