/home/yang/projects/t99_calc/v1/qchem_data/combined/log_fchk/c2f4o.log
     RDKit          3D

  7  6  0  0  0  0  0  0  0  0999 V2000
    0.9472    0.1560   -0.0000 C   0  0  0  0  0  0  0  0  0  0  0  0
    1.5053   -1.0488    0.0001 F   0  0  0  0  0  0  0  0  0  0  0  0
    1.5521    1.1588    0.0001 O   0  0  0  0  0  0  0  0  0  0  0  0
   -0.5904    0.0161   -0.0002 C   0  0  0  0  0  0  0  0  0  0  0  0
   -1.1549    1.2087   -0.0006 F   0  0  0  0  0  0  0  0  0  0  0  0
   -0.9837   -0.6528   -1.0810 F   0  0  0  0  0  0  0  0  0  0  0  0
   -0.9843   -0.6518    1.0815 F   0  0  0  0  0  0  0  0  0  0  0  0
  1  3  2  0
  1  2  1  0
  4  1  1  0
  4  7  1  0
  5  4  1  0
  6  4  1  0
M  END
>  <program>  (1) 
Gaussian 16, Revision A.03

>  <basis>  (1) 
6-311+G(2d) (5D, 7F)

>  <File Format>  (1) 
g03

$$$$
