/home/yang/projects/t99_calc/v1/qchem_data/combined/log_fchk/c2f5oh.log
     RDKit          3D

  9  8  0  0  0  0  0  0  0  0999 V2000
   -0.0248   -1.3920    1.0801 F   0  0  0  0  0  0  0  0  0  0  0  0
   -1.6680   -0.4996    0.0000 F   0  0  0  0  0  0  0  0  0  0  0  0
   -0.0248    1.3737   -1.0798 F   0  0  0  0  0  0  0  0  0  0  0  0
   -0.0248    1.3737    1.0798 F   0  0  0  0  0  0  0  0  0  0  0  0
    0.3772    0.6699    0.0000 C   0  0  0  0  0  0  0  0  0  0  0  0
   -0.3545   -0.6951    0.0000 C   0  0  0  0  0  0  0  0  0  0  0  0
   -0.0248   -1.3920   -1.0801 F   0  0  0  0  0  0  0  0  0  0  0  0
    1.7010    0.4594    0.0000 O   0  0  0  0  0  0  0  0  0  0  0  0
    2.1622    1.3030    0.0000 H   0  0  0  0  0  0  0  0  0  0  0  0
  2  6  1  0
  3  5  1  0
  5  6  1  0
  5  8  1  0
  5  4  1  0
  6  1  1  0
  7  6  1  0
  8  9  1  0
M  END
>  <program>  (1) 
Gaussian 16, Revision A.03

>  <basis>  (1) 
6-311+G(2d,2p) (5D, 7F)

>  <File Format>  (1) 
g03

$$$$
