/home/yang/projects/t99_calc/v1/qchem_data/combined/log_fchk/c2f5.log
     RDKit          3D

  7  6  0  0  0  0  0  0  0  0999 V2000
    0.6098    0.0001   -0.0199 C   0  0  0  0  0  0  0  0  0  0  0  0
    0.8187   -0.0009    1.3022 F   0  0  0  0  0  0  0  0  0  0  0  0
    1.1848   -1.0829   -0.5300 F   0  0  0  0  0  0  0  0  0  0  0  0
    1.1844    1.0840   -0.5284 F   0  0  0  0  0  0  0  0  0  0  0  0
   -0.8693   -0.0000   -0.3565 C   0  0  0  0  0  3  0  0  0  0  0  0
   -1.5073   -1.0905    0.0036 F   0  0  0  0  0  0  0  0  0  0  0  0
   -1.5076    1.0903    0.0036 F   0  0  0  0  0  0  0  0  0  0  0  0
  1  2  1  0
  3  1  1  0
  4  1  1  0
  5  1  1  0
  5  6  1  0
  5  7  1  0
M  RAD  1   5   2
M  END
>  <program>  (1) 
Gaussian 16, Revision A.03

>  <basis>  (1) 
6-311+G(2d) (5D, 7F)

>  <File Format>  (1) 
g03

$$$$
