/home/yang/projects/t99_calc/v1/qchem_data/combined/log_fchk/c3f6o2_1st.log
     RDKit          3D

 11 10  0  0  1  0  0  0  0  0999 V2000
   -0.3486    0.6617   -0.0790 C   0  0  0  0  0  3  0  0  0  0  0  0
    1.0740    0.2351   -0.2740 C   0  0  0  0  0  0  0  0  0  0  0  0
    1.2278   -0.4623   -1.3947 F   0  0  0  0  0  0  0  0  0  0  0  0
   -0.5304    1.8305    0.4880 F   0  0  0  0  0  0  0  0  0  0  0  0
    1.8727    1.2933   -0.3098 F   0  0  0  0  0  0  0  0  0  0  0  0
    1.4413   -0.5911    0.8387 O   0  0  0  0  0  0  0  0  0  0  0  0
    2.6742   -1.0151    0.7208 O   0  0  0  0  0  1  0  0  0  0  0  0
   -1.5254   -0.2659   -0.0041 C   0  0  0  0  0  0  0  0  0  0  0  0
   -1.8763   -0.4975    1.2654 F   0  0  0  0  0  0  0  0  0  0  0  0
   -2.5804    0.2713   -0.6177 F   0  0  0  0  0  0  0  0  0  0  0  0
   -1.2382   -1.4282   -0.5796 F   0  0  0  0  0  0  0  0  0  0  0  0
  1  8  1  0
  1  4  1  0
  2  1  1  0
  2  6  1  0
  3  2  1  0
  5  2  1  0
  7  6  1  0
  8  9  1  0
 10  8  1  0
 11  8  1  0
M  RAD  2   1   2   7   2
M  END
>  <program>  (1) 
Gaussian 16, Revision A.03

>  <basis>  (1) 
6-311+G(2d,2p) (5D, 7F)

>  <File Format>  (1) 
g03

$$$$
