/home/yang/projects/t99_calc/v1/qchem_data/combined/log_fchk/c3f6o2_ring.log
     RDKit          3D

 11 11  0  0  1  0  0  0  0  0999 V2000
   -0.0171   -0.5447   -0.0295 C   0  0  2  0  0  0  0  0  0  0  0  0
   -1.3254    0.2602   -0.0708 C   0  0  0  0  0  0  0  0  0  0  0  0
    0.0484   -1.5327   -0.9275 F   0  0  0  0  0  0  0  0  0  0  0  0
   -2.1984   -0.1250   -0.9856 F   0  0  0  0  0  0  0  0  0  0  0  0
   -1.2438    1.5811   -0.1080 F   0  0  0  0  0  0  0  0  0  0  0  0
   -0.3924   -0.9944    1.2450 O   0  0  0  0  0  0  0  0  0  0  0  0
   -1.6347   -0.2230    1.2032 O   0  0  0  0  0  0  0  0  0  0  0  0
    1.3331    0.1940   -0.0221 C   0  0  0  0  0  0  0  0  0  0  0  0
    1.3370    1.1574    0.8873 F   0  0  0  0  0  0  0  0  0  0  0  0
    1.5584    0.7262   -1.2194 F   0  0  0  0  0  0  0  0  0  0  0  0
    2.3066   -0.6645    0.2588 F   0  0  0  0  0  0  0  0  0  0  0  0
  1  3  1  6
  1  8  1  0
  1  6  1  0
  2  1  1  0
  2  7  1  0
  4  2  1  0
  5  2  1  0
  7  6  1  0
  8 11  1  0
  8  9  1  0
 10  8  1  0
M  END
>  <program>  (1) 
Gaussian 16, Revision A.03

>  <basis>  (1) 
6-311+G(2d) (5D, 7F)

>  <File Format>  (1) 
g03

$$$$
