/home/yang/projects/t99_calc/v1/qchem_data/combined/log_fchk/c3f7.log
     RDKit          3D

 10  9  0  0  0  0  0  0  0  0999 V2000
   -1.0280   -0.3820    0.0002 C   0  0  0  0  0  0  0  0  0  0  0  0
   -2.2080    0.2232    0.0001 F   0  0  0  0  0  0  0  0  0  0  0  0
   -0.9381   -1.1499   -1.0799 F   0  0  0  0  0  0  0  0  0  0  0  0
   -0.9378   -1.1492    1.0808 F   0  0  0  0  0  0  0  0  0  0  0  0
    0.1138    0.6729   -0.0003 C   0  0  0  0  0  0  0  0  0  0  0  0
   -0.0378    1.4312   -1.0968 F   0  0  0  0  0  0  0  0  0  0  0  0
   -0.0377    1.4321    1.0955 F   0  0  0  0  0  0  0  0  0  0  0  0
    1.8763   -0.5293   -1.0893 F   0  0  0  0  0  0  0  0  0  0  0  0
    1.8765   -0.5280    1.0897 F   0  0  0  0  0  0  0  0  0  0  0  0
    1.5238    0.1138   -0.0001 C   0  0  0  0  0  3  0  0  0  0  0  0
  1  4  1  0
  2  1  1  0
  3  1  1  0
  5 10  1  0
  5  1  1  0
  5  7  1  0
  6  5  1  0
  8 10  1  0
 10  9  1  0
M  RAD  1  10   2
M  END
>  <program>  (1) 
Gaussian 16, Revision C.02

>  <basis>  (1) 
6-311+G(2d,2p) (5D, 7F)

>  <File Format>  (1) 
g03

$$$$
