/home/yang/projects/t99_calc/v1/qchem_data/combined/log_fchk/c3f7oh.log
     RDKit          3D

 12 11  0  0  0  0  0  0  0  0999 V2000
    1.3086   -0.2370    0.0000 C   0  0  0  0  0  0  0  0  0  0  0  0
    1.3818   -1.0035   -1.0800 F   0  0  0  0  0  0  0  0  0  0  0  0
    1.3817   -1.0035    1.0800 F   0  0  0  0  0  0  0  0  0  0  0  0
    0.0004    0.6019   -0.0000 C   0  0  0  0  0  0  0  0  0  0  0  0
    0.0194    1.3783   -1.0916 F   0  0  0  0  0  0  0  0  0  0  0  0
    2.3435    0.5959    0.0000 F   0  0  0  0  0  0  0  0  0  0  0  0
   -1.3504   -1.0237   -1.0793 F   0  0  0  0  0  0  0  0  0  0  0  0
   -1.3506   -1.0234    1.0795 F   0  0  0  0  0  0  0  0  0  0  0  0
   -1.3210   -0.2120    0.0000 C   0  0  0  0  0  0  0  0  0  0  0  0
   -2.3445    0.6535   -0.0002 O   0  0  0  0  0  0  0  0  0  0  0  0
   -3.1748    0.1682    0.0002 H   0  0  0  0  0  0  0  0  0  0  0  0
    0.0193    1.3784    1.0915 F   0  0  0  0  0  0  0  0  0  0  0  0
  1  6  1  0
  1  3  1  0
  2  1  1  0
  4  9  1  0
  4  1  1  0
  4 12  1  0
  5  4  1  0
  7  9  1  0
  9  8  1  0
 10  9  1  0
 10 11  1  0
M  END
>  <program>  (1) 
Gaussian 16, Revision A.03

>  <basis>  (1) 
6-311+G(2d,2p) (5D, 7F)

>  <File Format>  (1) 
g03

$$$$
