/home/yang/projects/t99_calc/v1/qchem_data/combined/log_fchk/c3f8.log
     RDKit          3D

 11 10  0  0  0  0  0  0  0  0999 V2000
    0.0000    1.3125   -0.2361 C   0  0  0  0  0  0  0  0  0  0  0  0
    0.0000    2.3443    0.5972 F   0  0  0  0  0  0  0  0  0  0  0  0
    1.0797    1.3805   -1.0030 F   0  0  0  0  0  0  0  0  0  0  0  0
   -1.0797    1.3805   -1.0030 F   0  0  0  0  0  0  0  0  0  0  0  0
   -0.0000   -0.0000    0.5935 C   0  0  0  0  0  0  0  0  0  0  0  0
    1.0916   -0.0000    1.3682 F   0  0  0  0  0  0  0  0  0  0  0  0
   -1.0916    0.0000    1.3682 F   0  0  0  0  0  0  0  0  0  0  0  0
   -0.0000   -1.3125   -0.2361 C   0  0  0  0  0  0  0  0  0  0  0  0
   -1.0797   -1.3805   -1.0030 F   0  0  0  0  0  0  0  0  0  0  0  0
   -0.0000   -2.3443    0.5972 F   0  0  0  0  0  0  0  0  0  0  0  0
    1.0797   -1.3805   -1.0030 F   0  0  0  0  0  0  0  0  0  0  0  0
  1  5  1  0
  1  2  1  0
  3  1  1  0
  4  1  1  0
  5  6  1  0
  5  7  1  0
  8  5  1  0
  8 10  1  0
  9  8  1  0
 11  8  1  0
M  END
>  <program>  (1) 
Gaussian 16, Revision A.03

>  <basis>  (1) 
6-311+G(2d,2p) (5D, 7F)

>  <File Format>  (1) 
g03

$$$$
