/home/yang/projects/t99_calc/v1/qchem_data/combined/log_fchk/c4_rad.log
     RDKit          3D

 13 12  0  0  0  0  0  0  0  0999 V2000
   -0.7659    0.6470    0.0458 C   0  0  0  0  0  0  0  0  0  0  0  0
   -0.5835    1.4673   -1.0009 F   0  0  0  0  0  0  0  0  0  0  0  0
   -0.6040    1.3346    1.1870 F   0  0  0  0  0  0  0  0  0  0  0  0
   -2.2006    0.1518    0.0018 C   0  0  0  0  0  3  0  0  0  0  0  0
   -2.5865   -0.3822   -1.1329 F   0  0  0  0  0  0  0  0  0  0  0  0
   -2.5943   -0.5490    1.0393 F   0  0  0  0  0  0  0  0  0  0  0  0
    0.3116   -0.4762   -0.0104 C   0  0  0  0  0  0  0  0  0  0  0  0
    1.7915    0.0010   -0.0115 C   0  0  0  0  0  0  0  0  0  0  0  0
    0.1155   -1.1926   -1.1273 F   0  0  0  0  0  0  0  0  0  0  0  0
    0.1416   -1.2741    1.0536 F   0  0  0  0  0  0  0  0  0  0  0  0
    2.0476    0.7383   -1.0828 F   0  0  0  0  0  0  0  0  0  0  0  0
    2.0586    0.7091    1.0771 F   0  0  0  0  0  0  0  0  0  0  0  0
    2.5804   -1.0669   -0.0304 F   0  0  0  0  0  0  0  0  0  0  0  0
  1  3  1  0
  2  1  1  0
  4  1  1  0
  4  6  1  0
  5  4  1  0
  7  1  1  0
  7 10  1  0
  8  7  1  0
  8 12  1  0
  9  7  1  0
 11  8  1  0
 13  8  1  0
M  RAD  1   4   2
M  END
>  <program>  (1) 
Gaussian 16, Revision A.03

>  <basis>  (1) 
6-311+G(2d,2p) (5D, 7F)

>  <File Format>  (1) 
g03

$$$$
