/home/yang/projects/t99_calc/v1/qchem_data/combined/log_fchk/c4_secondary_rad.log
     RDKit          3D

 13 12  0  0  1  0  0  0  0  0999 V2000
   -0.5484    0.5121    0.0133 C   0  0  0  0  0  0  0  0  0  0  0  0
   -0.4666    1.1702    1.1942 F   0  0  0  0  0  0  0  0  0  0  0  0
   -0.5360    1.4386   -0.9640 F   0  0  0  0  0  0  0  0  0  0  0  0
    0.6098   -0.4215   -0.1592 C   0  0  0  0  0  3  0  0  0  0  0  0
    0.3992   -1.7075    0.0209 F   0  0  0  0  0  0  0  0  0  0  0  0
    2.5183   -0.2533    1.1922 F   0  0  0  0  0  0  0  0  0  0  0  0
    2.1742    1.2948   -0.2780 F   0  0  0  0  0  0  0  0  0  0  0  0
    2.0451   -0.0046   -0.0352 C   0  0  0  0  0  0  0  0  0  0  0  0
    2.8019   -0.6837   -0.8980 F   0  0  0  0  0  0  0  0  0  0  0  0
   -1.9300   -0.1951   -0.0279 C   0  0  0  0  0  0  0  0  0  0  0  0
   -2.8882    0.7171    0.0286 F   0  0  0  0  0  0  0  0  0  0  0  0
   -2.0638   -1.0209    1.0020 F   0  0  0  0  0  0  0  0  0  0  0  0
   -2.0567   -0.8826   -1.1585 F   0  0  0  0  0  0  0  0  0  0  0  0
  1  2  1  0
  3  1  1  0
  4  8  1  0
  4  1  1  0
  4  5  1  0
  7  8  1  0
  8  6  1  0
  9  8  1  0
 10  1  1  0
 10 11  1  0
 10 12  1  0
 13 10  1  0
M  RAD  1   4   2
M  END
>  <program>  (1) 
Gaussian 16, Revision A.03

>  <basis>  (1) 
6-311+G(2d,2p) (5D, 7F)

>  <File Format>  (1) 
g03

$$$$
