/home/yang/projects/t99_calc/v1/qchem_data/combined/log_fchk/c4f7_o.log
     RDKit          3D

 12 11  0  0  1  0  0  0  0  0999 V2000
    0.9235    0.5405    0.0707 C   0  0  0  0  0  3  0  0  0  0  0  0
    1.1426    1.7223   -0.4396 F   0  0  0  0  0  0  0  0  0  0  0  0
    3.0922    0.0411   -0.5103 F   0  0  0  0  0  0  0  0  0  0  0  0
    1.9671   -0.4575    0.0168 C   0  0  0  0  0  0  0  0  0  0  0  0
    1.8768   -1.5830    0.3813 O   0  0  0  0  0  0  0  0  0  0  0  0
   -0.4669    0.3137    0.6133 C   0  0  0  0  0  0  0  0  0  0  0  0
   -1.4387   -0.2998   -0.4328 C   0  0  0  0  0  0  0  0  0  0  0  0
   -0.4303   -0.5011    1.6747 F   0  0  0  0  0  0  0  0  0  0  0  0
   -0.9783    1.4986    0.9883 F   0  0  0  0  0  0  0  0  0  0  0  0
   -0.9986   -1.4887   -0.8219 F   0  0  0  0  0  0  0  0  0  0  0  0
   -1.5042    0.5010   -1.4946 F   0  0  0  0  0  0  0  0  0  0  0  0
   -2.6483   -0.4307    0.0859 F   0  0  0  0  0  0  0  0  0  0  0  0
  1  2  1  0
  1  6  1  0
  3  4  1  0
  4  1  1  0
  4  5  2  0
  6  9  1  0
  6  8  1  0
  7 12  1  0
  7  6  1  0
 10  7  1  0
 11  7  1  0
M  RAD  1   1   2
M  END
>  <program>  (1) 
Gaussian 16, Revision A.03

>  <basis>  (1) 
6-311+G(2d,2p) (5D, 7F)

>  <File Format>  (1) 
g03

$$$$
