/home/yang/projects/t99_calc/v1/qchem_data/combined/log_fchk/c4f9oh.log
     RDKit          3D

 15 14  0  0  0  0  0  0  0  0999 V2000
   -1.9986   -0.0986    0.0699 C   0  0  0  0  0  0  0  0  0  0  0  0
   -2.1258   -0.5974    1.3169 F   0  0  0  0  0  0  0  0  0  0  0  0
   -2.1303   -1.1477   -0.7721 F   0  0  0  0  0  0  0  0  0  0  0  0
   -0.3933    1.3890    0.9111 F   0  0  0  0  0  0  0  0  0  0  0  0
   -0.5532    1.2020   -1.2542 F   0  0  0  0  0  0  0  0  0  0  0  0
    0.5800   -0.5095   -0.1148 C   0  0  0  0  0  0  0  0  0  0  0  0
    0.5810   -1.1365   -1.2969 F   0  0  0  0  0  0  0  0  0  0  0  0
    0.4025   -1.4136    0.8584 F   0  0  0  0  0  0  0  0  0  0  0  0
   -0.5841    0.5269   -0.0993 C   0  0  0  0  0  0  0  0  0  0  0  0
    1.9915    0.1167    0.0871 C   0  0  0  0  0  0  0  0  0  0  0  0
    2.1448    0.5469    1.3310 F   0  0  0  0  0  0  0  0  0  0  0  0
    2.9070   -0.8138   -0.1544 F   0  0  0  0  0  0  0  0  0  0  0  0
    2.1808    1.1295   -0.7499 F   0  0  0  0  0  0  0  0  0  0  0  0
   -2.9083    0.8557   -0.1732 O   0  0  0  0  0  0  0  0  0  0  0  0
   -3.7871    0.5154    0.0185 H   0  0  0  0  0  0  0  0  0  0  0  0
  1  2  1  0
  3  1  1  0
  5  9  1  0
  6  9  1  0
  6 10  1  0
  6  8  1  0
  7  6  1  0
  9  1  1  0
  9  4  1  0
 10 11  1  0
 12 10  1  0
 13 10  1  0
 14 15  1  0
 14  1  1  0
M  END
>  <program>  (1) 
Gaussian 16, Revision A.03

>  <basis>  (1) 
6-311+G(2d,2p) (5D, 7F)

>  <File Format>  (1) 
g03

$$$$
