/home/yang/projects/t99_calc/v1/qchem_data/combined/log_fchk/c5_rad.log
     RDKit          3D

 16 15  0  0  0  0  0  0  0  0999 V2000
    0.2462   -0.2868   -0.0372 C   0  0  0  0  0  0  0  0  0  0  0  0
    0.4227   -0.8829   -1.2264 F   0  0  0  0  0  0  0  0  0  0  0  0
    0.1490   -1.2348    0.9059 F   0  0  0  0  0  0  0  0  0  0  0  0
    1.5152    0.5708    0.2709 C   0  0  0  0  0  0  0  0  0  0  0  0
    1.4813    1.6800   -0.4841 F   0  0  0  0  0  0  0  0  0  0  0  0
    1.4918    0.9100    1.5682 F   0  0  0  0  0  0  0  0  0  0  0  0
    2.8299   -0.1379   -0.0030 C   0  0  0  0  0  3  0  0  0  0  0  0
    3.1532   -0.2796   -1.2659 F   0  0  0  0  0  0  0  0  0  0  0  0
    3.0323   -1.2367    0.6880 F   0  0  0  0  0  0  0  0  0  0  0  0
   -1.0819    0.5276   -0.0912 C   0  0  0  0  0  0  0  0  0  0  0  0
   -2.3680   -0.3462   -0.0057 C   0  0  0  0  0  0  0  0  0  0  0  0
   -1.1240    1.2016   -1.2456 F   0  0  0  0  0  0  0  0  0  0  0  0
   -1.1171    1.3981    0.9267 F   0  0  0  0  0  0  0  0  0  0  0  0
   -2.3184   -1.3351   -0.8903 F   0  0  0  0  0  0  0  0  0  0  0  0
   -2.5123   -0.8556    1.2085 F   0  0  0  0  0  0  0  0  0  0  0  0
   -3.4196    0.4167   -0.2740 F   0  0  0  0  0  0  0  0  0  0  0  0
  1  4  1  0
  1  3  1  0
  2  1  1  0
  4  6  1  0
  5  4  1  0
  7  4  1  0
  7  9  1  0
  8  7  1  0
 10  1  1  0
 10 11  1  0
 10 13  1  0
 11 15  1  0
 12 10  1  0
 14 11  1  0
 16 11  1  0
M  RAD  1   7   2
M  END
>  <program>  (1) 
Gaussian 16, Revision A.03

>  <basis>  (1) 
6-311+G(2d,2p) (5D, 7F)

>  <File Format>  (1) 
g03

$$$$
