Title Card Required
     RDKit          3D

 18 17  0  0  0  0  0  0  0  0999 V2000
    0.0039   -0.3379    0.0174 C   0  0  0  0  0  0  0  0  0  0  0  0
    0.1316   -1.1514   -1.0387 F   0  0  0  0  0  0  0  0  0  0  0  0
   -0.1364   -1.0840    1.1218 F   0  0  0  0  0  0  0  0  0  0  0  0
    1.2923    0.5309    0.1697 C   0  0  0  0  0  0  0  0  0  0  0  0
    1.2550    1.5341   -0.7200 F   0  0  0  0  0  0  0  0  0  0  0  0
    1.3058    1.0449    1.4045 F   0  0  0  0  0  0  0  0  0  0  0  0
   -1.2879    0.5141   -0.1848 C   0  0  0  0  0  0  0  0  0  0  0  0
   -2.6100   -0.2694    0.0687 C   0  0  0  0  0  0  0  0  0  0  0  0
   -1.3170    0.9597   -1.4455 F   0  0  0  0  0  0  0  0  0  0  0  0
   -1.2758    1.5616    0.6511 F   0  0  0  0  0  0  0  0  0  0  0  0
   -2.7682   -0.5261    1.3586 F   0  0  0  0  0  0  0  0  0  0  0  0
   -2.6133   -1.4123   -0.6068 F   0  0  0  0  0  0  0  0  0  0  0  0
    2.6189   -0.2525   -0.0518 C   0  0  0  0  0  0  0  0  0  0  0  0
    2.5725   -1.4168    0.6338 F   0  0  0  0  0  0  0  0  0  0  0  0
    2.7368   -0.5852   -1.3536 F   0  0  0  0  0  0  0  0  0  0  0  0
    3.6344    0.5250    0.3503 O   0  0  0  0  0  0  0  0  0  0  0  0
    4.4685    0.1021    0.1260 H   0  0  0  0  0  0  0  0  0  0  0  0
   -3.6295    0.4739   -0.3433 F   0  0  0  0  0  0  0  0  0  0  0  0
  1  2  1  0
  1  3  1  0
  1  4  1  0
  1  7  1  0
  4  5  1  0
  4  6  1  0
  4 13  1  0
  7  8  1  0
  7  9  1  0
  7 10  1  0
  8 11  1  0
  8 12  1  0
  8 18  1  0
 13 14  1  0
 13 15  1  0
 13 16  1  0
 16 17  1  0
M  END
$$$$
