/home/yang/projects/t99_calc/v1/qchem_data/combined/log_fchk/c6_secondary_rad.log
     RDKit          3D

 19 18  0  0  1  0  0  0  0  0999 V2000
   -0.4587   -0.0205    0.3029 C   0  0  0  0  0  0  0  0  0  0  0  0
   -0.3184   -1.3472    0.1646 F   0  0  0  0  0  0  0  0  0  0  0  0
   -0.4256    0.2789    1.6108 F   0  0  0  0  0  0  0  0  0  0  0  0
    0.7761    0.6544   -0.3700 C   0  0  0  0  0  0  0  0  0  0  0  0
    0.9040    0.1773   -1.6181 F   0  0  0  0  0  0  0  0  0  0  0  0
    0.5528    1.9819   -0.4263 F   0  0  0  0  0  0  0  0  0  0  0  0
    2.0436    0.3959    0.3921 C   0  0  0  0  0  3  0  0  0  0  0  0
    2.3242    1.2355    1.3594 F   0  0  0  0  0  0  0  0  0  0  0  0
   -1.8397    0.4202   -0.2659 C   0  0  0  0  0  0  0  0  0  0  0  0
   -1.7866    0.4525   -1.6042 F   0  0  0  0  0  0  0  0  0  0  0  0
   -2.1179    1.6462    0.1905 F   0  0  0  0  0  0  0  0  0  0  0  0
    3.1585   -0.5089   -0.0409 C   0  0  0  0  0  0  0  0  0  0  0  0
    3.9350    0.0621   -0.9726 F   0  0  0  0  0  0  0  0  0  0  0  0
    3.9307   -0.7998    1.0031 F   0  0  0  0  0  0  0  0  0  0  0  0
    2.6785   -1.6403   -0.5501 F   0  0  0  0  0  0  0  0  0  0  0  0
   -3.0199   -0.5139    0.1339 C   0  0  0  0  0  0  0  0  0  0  0  0
   -3.0310   -0.7143    1.4464 F   0  0  0  0  0  0  0  0  0  0  0  0
   -4.1595    0.0645   -0.2213 F   0  0  0  0  0  0  0  0  0  0  0  0
   -2.9261   -1.6821   -0.4836 F   0  0  0  0  0  0  0  0  0  0  0  0
  1  3  1  0
  2  1  1  0
  4  1  1  0
  4  7  1  0
  5  4  1  0
  6  4  1  0
  7  8  1  0
  9 16  1  0
  9 11  1  0
  9  1  1  0
 10  9  1  0
 12  7  1  0
 12 14  1  0
 13 12  1  0
 15 12  1  0
 16 17  1  0
 18 16  1  0
 19 16  1  0
M  RAD  1   7   2
M  END
>  <program>  (1) 
Gaussian 16, Revision A.03

>  <basis>  (1) 
6-311+G(2d,2p) (5D, 7F)

>  <File Format>  (1) 
g03

$$$$
