/home/yang/projects/t99_calc/v1/qchem_data/combined/log_fchk/c6f13oh.log
     RDKit          3D

 21 20  0  0  0  0  0  0  0  0999 V2000
   -0.6749   -0.3984   -0.0173 C   0  0  0  0  0  0  0  0  0  0  0  0
   -0.7913   -1.0597    1.1409 F   0  0  0  0  0  0  0  0  0  0  0  0
   -0.6305   -1.2842   -1.0214 F   0  0  0  0  0  0  0  0  0  0  0  0
   -1.9232    0.5177   -0.2233 C   0  0  0  0  0  0  0  0  0  0  0  0
   -1.7867    1.6229    0.5250 F   0  0  0  0  0  0  0  0  0  0  0  0
   -1.9768    0.8688   -1.5127 F   0  0  0  0  0  0  0  0  0  0  0  0
    0.6683    0.4010    0.0127 C   0  0  0  0  0  0  0  0  0  0  0  0
    1.9195   -0.4973   -0.2397 C   0  0  0  0  0  0  0  0  0  0  0  0
    3.2665    0.1604    0.1835 C   0  0  0  0  0  0  0  0  0  0  0  0
    0.7881    0.9850    1.2124 F   0  0  0  0  0  0  0  0  0  0  0  0
    0.6418    1.3504   -0.9316 F   0  0  0  0  0  0  0  0  0  0  0  0
    1.9960   -0.7728   -1.5460 F   0  0  0  0  0  0  0  0  0  0  0  0
    1.7987   -1.6430    0.4452 F   0  0  0  0  0  0  0  0  0  0  0  0
    3.3642    0.2325    1.5026 F   0  0  0  0  0  0  0  0  0  0  0  0
    3.3716    1.3805   -0.3290 F   0  0  0  0  0  0  0  0  0  0  0  0
   -3.2747   -0.1525    0.1603 C   0  0  0  0  0  0  0  0  0  0  0  0
   -3.3238   -1.3969   -0.3659 F   0  0  0  0  0  0  0  0  0  0  0  0
   -3.3419   -0.3051    1.4987 F   0  0  0  0  0  0  0  0  0  0  0  0
   -4.2687    0.6232   -0.2958 O   0  0  0  0  0  0  0  0  0  0  0  0
   -5.1106    0.2816    0.0196 H   0  0  0  0  0  0  0  0  0  0  0  0
    4.2649   -0.5841   -0.2750 F   0  0  0  0  0  0  0  0  0  0  0  0
  1  7  1  0
  1  2  1  0
  3  1  1  0
  4  1  1  0
  4 16  1  0
  4  5  1  0
  6  4  1  0
  7 10  1  0
  8  7  1  0
  8  9  1  0
  8 13  1  0
  9 14  1  0
 11  7  1  0
 12  8  1  0
 15  9  1  0
 16 18  1  0
 17 16  1  0
 19 20  1  0
 19 16  1  0
 21  9  1  0
M  END
>  <program>  (1) 
Gaussian 16, Revision A.03

>  <basis>  (1) 
6-311+G(2d,2p) (5D, 7F)

>  <File Format>  (1) 
g03

$$$$
