Title Card Required
     RDKit          3D

 22 21  0  0  1  0  0  0  0  0999 V2000
    0.2140   -0.0398    0.3258 C   0  0  0  0  0  0  0  0  0  0  0  0
    0.3629   -1.3669    0.2077 F   0  0  0  0  0  0  0  0  0  0  0  0
    0.2673    0.2858    1.6263 F   0  0  0  0  0  0  0  0  0  0  0  0
    1.4314    0.6344   -0.3799 C   0  0  0  0  0  0  0  0  0  0  0  0
    1.5531    0.1271   -1.6165 F   0  0  0  0  0  0  0  0  0  0  0  0
    1.1876    1.9568   -0.4673 F   0  0  0  0  0  0  0  0  0  0  0  0
    2.7110    0.4143    0.3739 C   0  0  0  0  0  3  0  0  0  0  0  0
    2.9925    1.2846    1.3134 F   0  0  0  0  0  0  0  0  0  0  0  0
   -1.1800    0.3830   -0.2332 C   0  0  0  0  0  0  0  0  0  0  0  0
   -1.1237    0.4321   -1.5700 F   0  0  0  0  0  0  0  0  0  0  0  0
   -1.4664    1.6055    0.2334 F   0  0  0  0  0  0  0  0  0  0  0  0
    3.8315   -0.4899   -0.0457 C   0  0  0  0  0  0  0  0  0  0  0  0
    4.5923    0.0638   -1.0006 F   0  0  0  0  0  0  0  0  0  0  0  0
    4.6174   -0.7437    0.9977 F   0  0  0  0  0  0  0  0  0  0  0  0
    3.3590   -1.6398   -0.5190 F   0  0  0  0  0  0  0  0  0  0  0  0
   -2.3247   -0.5974    0.1705 C   0  0  0  0  0  0  0  0  0  0  0  0
   -2.1916   -0.9343    1.4610 F   0  0  0  0  0  0  0  0  0  0  0  0
   -2.2324   -1.6984   -0.5824 F   0  0  0  0  0  0  0  0  0  0  0  0
   -3.7563   -0.0133   -0.0172 C   0  0  0  0  0  0  0  0  0  0  0  0
   -4.0013    0.9323    0.8772 F   0  0  0  0  0  0  0  0  0  0  0  0
   -4.6379   -0.9910    0.1461 F   0  0  0  0  0  0  0  0  0  0  0  0
   -3.8967    0.4920   -1.2366 F   0  0  0  0  0  0  0  0  0  0  0  0
  1  2  1  0
  1  3  1  0
  1  4  1  0
  1  9  1  0
  4  5  1  0
  4  6  1  0
  4  7  1  0
  7  8  1  0
  7 12  1  0
  9 10  1  0
  9 11  1  0
  9 16  1  0
 12 13  1  0
 12 14  1  0
 12 15  1  0
 16 17  1  0
 16 18  1  0
 16 19  1  0
 19 20  1  0
 19 21  1  0
 19 22  1  0
M  RAD  1   7   2
M  END
$$$$
