/home/yang/projects/t99_calc/v1/qchem_data/combined/log_fchk/c7f15oh.log
     RDKit          3D

 24 23  0  0  0  0  0  0  0  0999 V2000
   -1.3039   -0.3650    0.0522 C   0  0  0  0  0  0  0  0  0  0  0  0
   -1.4295   -0.8740    1.2838 F   0  0  0  0  0  0  0  0  0  0  0  0
   -1.1812   -1.3710   -0.8244 F   0  0  0  0  0  0  0  0  0  0  0  0
   -2.5874    0.4489   -0.3092 C   0  0  0  0  0  0  0  0  0  0  0  0
   -2.5310    1.6485    0.2888 F   0  0  0  0  0  0  0  0  0  0  0  0
   -2.6136    0.6237   -1.6348 F   0  0  0  0  0  0  0  0  0  0  0  0
   -0.0027    0.5020    0.0135 C   0  0  0  0  0  0  0  0  0  0  0  0
    1.2982   -0.3597   -0.0851 C   0  0  0  0  0  0  0  0  0  0  0  0
    2.5834    0.4254    0.3249 C   0  0  0  0  0  0  0  0  0  0  0  0
    3.9094   -0.2441   -0.1440 C   0  0  0  0  0  0  0  0  0  0  0  0
    0.0488    1.2393    1.1303 F   0  0  0  0  0  0  0  0  0  0  0  0
   -0.0460    1.3170   -1.0477 F   0  0  0  0  0  0  0  0  0  0  0  0
    1.4327   -0.7827   -1.3487 F   0  0  0  0  0  0  0  0  0  0  0  0
    1.1862   -1.4238    0.7205 F   0  0  0  0  0  0  0  0  0  0  0  0
    2.6255    0.5184    1.6580 F   0  0  0  0  0  0  0  0  0  0  0  0
    2.5461    1.6574   -0.2014 F   0  0  0  0  0  0  0  0  0  0  0  0
    4.0511   -0.1445   -1.4571 F   0  0  0  0  0  0  0  0  0  0  0  0
    3.9320   -1.5258    0.2015 F   0  0  0  0  0  0  0  0  0  0  0  0
    4.9271    0.3750    0.4405 F   0  0  0  0  0  0  0  0  0  0  0  0
   -3.9172   -0.2358    0.1221 C   0  0  0  0  0  0  0  0  0  0  0  0
   -3.8868   -1.5394   -0.2348 F   0  0  0  0  0  0  0  0  0  0  0  0
   -4.0239   -0.2142    1.4665 F   0  0  0  0  0  0  0  0  0  0  0  0
   -4.9313    0.4193   -0.4612 O   0  0  0  0  0  0  0  0  0  0  0  0
   -5.7660    0.0782   -0.1268 H   0  0  0  0  0  0  0  0  0  0  0  0
  1  2  1  0
  3  1  1  0
  4  1  1  0
  4 20  1  0
  4  5  1  0
  6  4  1  0
  7  1  1  0
  7 11  1  0
  8  7  1  0
  8  9  1  0
  8 14  1  0
  9 15  1  0
 10 18  1  0
 10  9  1  0
 10 19  1  0
 12  7  1  0
 13  8  1  0
 16  9  1  0
 17 10  1  0
 20 22  1  0
 21 20  1  0
 23 24  1  0
 23 20  1  0
M  END
>  <program>  (1) 
Gaussian 16, Revision A.03

>  <basis>  (1) 
6-311+G(2d,2p) (5D, 7F)

>  <File Format>  (1) 
g03

$$$$
