/home/yang/projects/t99_calc/v1/qchem_data/combined/log_fchk/cbutane.log
     RDKit          3D

 12 12  0  0  0  0  0  0  0  0999 V2000
   -1.0412   -0.0000   -0.2254 C   0  0  0  0  0  0  0  0  0  0  0  0
   -1.1918   -0.0000   -1.5670 F   0  0  0  0  0  0  0  0  0  0  0  0
   -2.2933   -0.0000    0.2794 F   0  0  0  0  0  0  0  0  0  0  0  0
    0.0000    1.0412    0.2254 C   0  0  0  0  0  0  0  0  0  0  0  0
    0.0000    2.2933   -0.2794 F   0  0  0  0  0  0  0  0  0  0  0  0
    0.0000    1.1918    1.5670 F   0  0  0  0  0  0  0  0  0  0  0  0
    1.0412   -0.0000   -0.2254 C   0  0  0  0  0  0  0  0  0  0  0  0
    2.2933   -0.0000    0.2794 F   0  0  0  0  0  0  0  0  0  0  0  0
    1.1918    0.0000   -1.5670 F   0  0  0  0  0  0  0  0  0  0  0  0
   -0.0000   -1.0412    0.2254 C   0  0  0  0  0  0  0  0  0  0  0  0
   -0.0000   -2.2933   -0.2794 F   0  0  0  0  0  0  0  0  0  0  0  0
   -0.0000   -1.1918    1.5670 F   0  0  0  0  0  0  0  0  0  0  0  0
  1  4  1  0
  1 10  1  0
  1  3  1  0
  2  1  1  0
  4  6  1  0
  5  4  1  0
  7  4  1  0
  7 10  1  0
  7  8  1  0
  9  7  1  0
 10 12  1  0
 11 10  1  0
M  END
>  <program>  (1) 
Gaussian 16, Revision A.03

>  <basis>  (1) 
6-311+G(2d) (5D, 7F)

>  <File Format>  (1) 
g03

$$$$
