/home/yang/projects/t99_calc/v1/qchem_data/combined/log_fchk/cbutane_diradical.log
     RDKit          3D

 12 11  0  0  0  0  0  0  0  0999 V2000
    1.9220    0.3026   -0.2275 C   0  0  0  0  0  3  0  0  0  0  0  0
    2.1469    1.2155    0.6903 F   0  0  0  0  0  0  0  0  0  0  0  0
    2.9709   -0.4642   -0.4247 F   0  0  0  0  0  0  0  0  0  0  0  0
   -1.9220   -0.3026   -0.2272 C   0  0  0  0  0  3  0  0  0  0  0  0
   -2.9709    0.4641   -0.4245 F   0  0  0  0  0  0  0  0  0  0  0  0
   -2.1468   -1.2154    0.6908 F   0  0  0  0  0  0  0  0  0  0  0  0
   -0.6216    0.4629   -0.0803 C   0  0  0  0  0  0  0  0  0  0  0  0
   -0.6220    1.1927    1.0574 F   0  0  0  0  0  0  0  0  0  0  0  0
   -0.5223    1.3104   -1.1185 F   0  0  0  0  0  0  0  0  0  0  0  0
    0.6216   -0.4629   -0.0802 C   0  0  0  0  0  0  0  0  0  0  0  0
    0.6221   -1.1926    1.0576 F   0  0  0  0  0  0  0  0  0  0  0  0
    0.5222   -1.3106   -1.1183 F   0  0  0  0  0  0  0  0  0  0  0  0
  1 10  1  0
  1  2  1  0
  3  1  1  0
  4  7  1  0
  4  6  1  0
  5  4  1  0
  7 10  1  0
  7  8  1  0
  9  7  1  0
 10 11  1  0
 12 10  1  0
M  RAD  2   1   2   4   2
M  END
>  <program>  (1) 
Gaussian 16, Revision A.03

>  <basis>  (1) 
6-311+G(2d,2p) (5D, 7F)

>  <File Format>  (1) 
g03

$$$$
