/home/yang/projects/t99_calc/v1/qchem_data/combined/log_fchk/cf2.log
     RDKit          3D

  3  2  0  0  0  0  0  0  0  0999 V2000
    0.0000    0.5948    0.0000 C   0  0  0  0  0  2  0  0  0  0  0  0
    1.0278   -0.1979   -0.0000 F   0  0  0  0  0  0  0  0  0  0  0  0
   -1.0278   -0.1986    0.0000 F   0  0  0  0  0  0  0  0  0  0  0  0
  1  2  1  0
  1  3  1  0
M  RAD  1   1   3
M  END
>  <program>  (1) 
Gaussian 16, Revision A.03

>  <basis>  (1) 
6-311+G(2d) (5D, 7F)

>  <File Format>  (1) 
g03

$$$$
