/home/yang/projects/t99_calc/v1/qchem_data/combined/log_fchk/cf2_2h2o_prod.log
     RDKit          3D

  9  7  0  0  0  0  0  0  0  0999 V2000
    0.5198   -0.0026   -0.1739 C   0  0  0  0  0  0  0  0  0  0  0  0
    1.4607    0.9255   -0.4846 F   0  0  0  0  0  0  0  0  0  0  0  0
    1.1820   -1.1834   -0.0896 F   0  0  0  0  0  0  0  0  0  0  0  0
   -0.0791    0.2972    1.0045 O   0  0  0  0  0  0  0  0  0  0  0  0
    0.5798    0.3002    1.7052 H   0  0  0  0  0  0  0  0  0  0  0  0
   -2.2043    0.0858    0.5025 H   0  0  0  0  0  0  0  0  0  0  0  0
   -2.6320   -0.1107   -0.3340 O   0  0  0  0  0  0  0  0  0  0  0  0
   -0.2334   -0.0498   -0.9550 H   0  0  0  0  0  0  0  0  0  0  0  0
   -3.3569    0.5089   -0.4061 H   0  0  0  0  0  0  0  0  0  0  0  0
  1  3  1  0
  1  4  1  0
  2  1  1  0
  4  5  1  0
  7  6  1  0
  8  1  1  0
  9  7  1  0
M  END
>  <program>  (1) 
Gaussian 16, Revision A.03

>  <basis>  (1) 
6-311+G(2d,2p) (5D, 7F)

>  <File Format>  (1) 
g03

$$$$
