Title Card Required
     RDKit          3D

  7  6  0  0  0  0  0  0  0  0999 V2000
    0.6613   -0.0150   -0.0001 C   0  0  0  0  0  3  0  0  0  0  0  0
    1.2719   -1.1652    0.0001 F   0  0  0  0  0  0  0  0  0  0  0  0
    1.4636    1.0046   -0.0000 F   0  0  0  0  0  0  0  0  0  0  0  0
   -0.7634    0.1458   -0.0001 C   0  0  0  0  0  0  0  0  0  0  0  0
   -1.3047    1.2262    0.0001 O   0  0  0  0  0  0  0  0  0  0  0  0
   -1.4029   -1.0385   -0.0001 O   0  0  0  0  0  0  0  0  0  0  0  0
   -2.3456   -0.8423    0.0005 H   0  0  0  0  0  0  0  0  0  0  0  0
  1  2  1  0
  1  3  1  0
  1  4  1  0
  4  5  2  0
  4  6  1  0
  6  7  1  0
M  RAD  1   1   2
M  END
$$$$
