Title Card Required
     RDKit          3D

  4  3  0  0  0  0  0  0  0  0999 V2000
   -0.0000    0.4848   -0.1496 C   0  0  0  0  0  3  0  0  0  0  0  0
   -1.0927   -0.2410    0.0282 F   0  0  0  0  0  0  0  0  0  0  0  0
    1.0927   -0.2410    0.0282 F   0  0  0  0  0  0  0  0  0  0  0  0
    0.0000    1.4288    0.3902 H   0  0  0  0  0  0  0  0  0  0  0  0
  1  2  1  0
  1  3  1  0
  1  4  1  0
M  RAD  1   1   2
M  END
$$$$
