/home/yang/projects/t99_calc/v1/qchem_data/combined/log_fchk/cf2o.log
     RDKit          3D

  4  3  0  0  0  0  0  0  0  0999 V2000
   -0.0000    0.0000    0.1420 C   0  0  0  0  0  0  0  0  0  0  0  0
    0.0000    1.0592   -0.6296 F   0  0  0  0  0  0  0  0  0  0  0  0
   -0.0000   -1.0592   -0.6296 F   0  0  0  0  0  0  0  0  0  0  0  0
   -0.0000    0.0000    1.3101 O   0  0  0  0  0  0  0  0  0  0  0  0
  1  4  2  0
  2  1  1  0
  3  1  1  0
M  END
>  <program>  (1) 
Gaussian 16, Revision A.03

>  <basis>  (1) 
6-311+G(2d,2p) (5D, 7F)

>  <File Format>  (1) 
g03

$$$$
