/home/yang/projects/t99_calc/v1/qchem_data/combined/log_fchk/cf2o_oh.log
     RDKit          3D

  6  5  0  0  0  0  0  0  0  0999 V2000
   -0.5141    1.2001   -0.2798 F   0  0  0  0  0  0  0  0  0  0  0  0
    0.4459   -0.0166    1.3000 O   0  0  0  0  0  1  0  0  0  0  0  0
    1.0458   -0.3580   -0.7392 O   0  0  0  0  0  0  0  0  0  0  0  0
    1.6842    0.3620   -0.7254 H   0  0  0  0  0  0  0  0  0  0  0  0
   -0.0152   -0.0135    0.0419 C   0  0  0  0  0  0  0  0  0  0  0  0
   -0.9889   -0.8984   -0.1661 F   0  0  0  0  0  0  0  0  0  0  0  0
  1  5  1  0
  3  4  1  0
  3  5  1  0
  5  2  1  0
  6  5  1  0
M  RAD  1   2   2
M  END
>  <program>  (1) 
Gaussian 16, Revision A.03

>  <basis>  (1) 
6-311+G(2d,2p) (5D, 7F)

>  <File Format>  (1) 
g03

$$$$
