/home/yang/projects/t99_calc/v1/qchem_data/combined/log_fchk/cf3.log
     RDKit          3D

  4  3  0  0  0  0  0  0  0  0999 V2000
    0.0001   -0.0001    0.3238 C   0  0  0  0  0  3  0  0  0  0  0  0
   -0.7679    0.9913   -0.0719 F   0  0  0  0  0  0  0  0  0  0  0  0
   -0.4746   -1.1605   -0.0720 F   0  0  0  0  0  0  0  0  0  0  0  0
    1.2424    0.1693   -0.0720 F   0  0  0  0  0  0  0  0  0  0  0  0
  2  1  1  0
  3  1  1  0
  4  1  1  0
M  RAD  1   1   2
M  END
>  <program>  (1) 
Gaussian 16, Revision A.03

>  <basis>  (1) 
6-311+G(2d) (5D, 7F)

>  <File Format>  (1) 
g03

$$$$
