/home/yang/projects/t99_calc/v1/qchem_data/combined/log_fchk/cf3ccf2.log
     RDKit          3D

  8  7  0  0  0  0  0  0  0  0999 V2000
    1.1297   -0.0784    0.0001 C   0  0  0  0  0  0  0  0  0  0  0  0
   -0.2538   -0.5726   -0.0000 C   0  0  0  0  0  3  0  0  0  0  0  0
    1.8020   -0.4990    1.0761 F   0  0  0  0  0  0  0  0  0  0  0  0
    1.1583    1.2624    0.0008 F   0  0  0  0  0  0  0  0  0  0  0  0
    1.8014   -0.4975   -1.0769 F   0  0  0  0  0  0  0  0  0  0  0  0
   -1.4762   -0.1227    0.0001 C   0  0  0  0  0  0  0  0  0  0  0  0
   -1.8265    1.1410    0.0001 F   0  0  0  0  0  0  0  0  0  0  0  0
   -2.5351   -0.8910   -0.0001 F   0  0  0  0  0  0  0  0  0  0  0  0
  1  4  1  0
  1  3  1  0
  2  1  1  0
  2  6  2  0
  5  1  1  0
  6  7  1  0
  8  6  1  0
M  RAD  1   2   2
M  END
>  <program>  (1) 
Gaussian 16, Revision A.03

>  <basis>  (1) 
6-311+G(2d,2p) (5D, 7F)

>  <File Format>  (1) 
g03

$$$$
