/home/yang/projects/t99_calc/v1/qchem_data/combined/log_fchk/cf3co.log
     RDKit          3D

  6  5  0  0  0  0  0  0  0  0999 V2000
    0.3547   -0.0180   -0.0000 C   0  0  0  0  0  0  0  0  0  0  0  0
    0.9888   -0.4502   -1.0825 F   0  0  0  0  0  0  0  0  0  0  0  0
    0.9887   -0.4504    1.0825 F   0  0  0  0  0  0  0  0  0  0  0  0
    0.3614    1.3087    0.0002 F   0  0  0  0  0  0  0  0  0  0  0  0
   -1.0944   -0.6121   -0.0001 C   0  0  0  0  0  3  0  0  0  0  0  0
   -2.0763    0.0134   -0.0000 O   0  0  0  0  0  0  0  0  0  0  0  0
  1  4  1  0
  1  3  1  0
  2  1  1  0
  5  1  1  0
  5  6  2  0
M  RAD  1   5   2
M  END
>  <program>  (1) 
Gaussian 16, Revision A.03

>  <basis>  (1) 
6-311+G(2d,2p) (5D, 7F)

>  <File Format>  (1) 
g03

$$$$
