/home/yang/projects/t99_calc/v1/qchem_data/combined/log_fchk/cf3cfoh.log
     RDKit          3D

  8  7  0  0  1  0  0  0  0  0999 V2000
    0.8758   -0.0289   -0.3320 C   0  0  0  0  0  3  0  0  0  0  0  0
    1.4534   -1.1734   -0.0074 F   0  0  0  0  0  0  0  0  0  0  0  0
   -0.6014   -0.0006   -0.0182 C   0  0  0  0  0  0  0  0  0  0  0  0
   -1.2490   -0.9556   -0.6738 F   0  0  0  0  0  0  0  0  0  0  0  0
   -0.8672   -0.1486    1.2873 F   0  0  0  0  0  0  0  0  0  0  0  0
   -1.0951    1.1924   -0.3925 F   0  0  0  0  0  0  0  0  0  0  0  0
    1.1952    1.8322   -0.2167 H   0  0  0  0  0  0  0  0  0  0  0  0
    1.6226    1.0138    0.0493 O   0  0  0  0  0  0  0  0  0  0  0  0
  1  3  1  0
  1  2  1  0
  1  8  1  0
  3  5  1  0
  4  3  1  0
  6  3  1  0
  7  8  1  0
M  RAD  1   1   2
M  END
>  <program>  (1) 
Gaussian 16, Revision A.03

>  <basis>  (1) 
6-311+G(2d,2p) (5D, 7F)

>  <File Format>  (1) 
g03

$$$$
