/home/yang/projects/t99_calc/v1/qchem_data/combined/log_fchk/cf3h.log
     RDKit          3D

  5  4  0  0  0  0  0  0  0  0999 V2000
    0.0000   -0.0000    0.3388 C   0  0  0  0  0  0  0  0  0  0  0  0
    0.0000   -0.0000    1.4273 H   0  0  0  0  0  0  0  0  0  0  0  0
    0.0000    1.2492   -0.1282 F   0  0  0  0  0  0  0  0  0  0  0  0
    1.0818   -0.6246   -0.1282 F   0  0  0  0  0  0  0  0  0  0  0  0
   -1.0818   -0.6246   -0.1282 F   0  0  0  0  0  0  0  0  0  0  0  0
  1  2  1  0
  3  1  1  0
  4  1  1  0
  5  1  1  0
M  END
>  <program>  (1) 
Gaussian 16, Revision A.03

>  <basis>  (1) 
6-311+G(2d,2p) (5D, 7F)

>  <File Format>  (1) 
g03

$$$$
