Title Card Required
     RDKit          3D

  5  4  0  0  0  0  0  0  0  0999 V2000
   -0.0001   -0.0000   -0.0002 C   0  0  0  0  0  0  0  0  0  0  0  0
   -0.5156    1.0378    0.6297 F   0  0  0  0  0  0  0  0  0  0  0  0
    1.3154    0.1009   -0.0107 F   0  0  0  0  0  0  0  0  0  0  0  0
   -0.4490   -0.0291   -1.2394 F   0  0  0  0  0  0  0  0  0  0  0  0
   -0.3508   -1.1096    0.6205 F   0  0  0  0  0  0  0  0  0  0  0  0
  1  2  1  0
  1  3  1  0
  1  4  1  0
  1  5  1  0
M  END
$$$$
