/home/yang/projects/t99_calc/v1/qchem_data/combined/log_fchk/cfo.log
     RDKit          3D

  3  2  0  0  0  0  0  0  0  0999 V2000
   -1.0105   -0.4369    0.0000 F   0  0  0  0  0  0  0  0  0  0  0  0
    0.0000    0.4204    0.0000 C   0  0  0  0  0  3  0  0  0  0  0  0
    1.1369    0.1762    0.0000 O   0  0  0  0  0  0  0  0  0  0  0  0
  1  2  1  0
  2  3  2  0
M  RAD  1   2   2
M  END
>  <program>  (1) 
Gaussian 16, Revision A.03

>  <basis>  (1) 
6-311+G(2d,2p) (5D, 7F)

>  <File Format>  (1) 
g03

$$$$
