/home/yang/projects/t99_calc/v1/qchem_data/combined/log_fchk/cfo2.log
     RDKit          3D

  4  3  0  0  0  0  0  0  0  0999 V2000
   -0.6820    1.0591    0.0000 O   0  0  0  0  0  0  0  0  0  0  0  0
   -0.6819   -1.0592    0.0000 O   0  0  0  0  0  1  0  0  0  0  0  0
   -0.0591   -0.0000   -0.0000 C   0  0  0  0  0  0  0  0  0  0  0  0
    1.2517    0.0001    0.0000 F   0  0  0  0  0  0  0  0  0  0  0  0
  3  4  1  0
  3  1  2  0
  3  2  1  0
M  RAD  1   2   2
M  END
>  <program>  (1) 
Gaussian 16, Revision A.03

>  <basis>  (1) 
6-311+G(2d,2p) (5D, 7F)

>  <File Format>  (1) 
g03

$$$$
