/home/yang/projects/t99_calc/v1/qchem_data/combined/log_fchk/cfo2h.log
     RDKit          3D

  5  4  0  0  0  0  0  0  0  0999 V2000
   -0.0115    0.1241   -0.0001 C   0  0  0  0  0  0  0  0  0  0  0  0
   -1.0835   -0.6485    0.0001 F   0  0  0  0  0  0  0  0  0  0  0  0
   -0.0570    1.3058   -0.0000 O   0  0  0  0  0  0  0  0  0  0  0  0
    1.0558   -0.6583   -0.0002 O   0  0  0  0  0  0  0  0  0  0  0  0
    1.8303   -0.0877    0.0016 H   0  0  0  0  0  0  0  0  0  0  0  0
  1  3  2  0
  1  2  1  0
  4  1  1  0
  4  5  1  0
M  END
>  <program>  (1) 
Gaussian 16, Revision A.03

>  <basis>  (1) 
6-311+G(2d,2p) (5D, 7F)

>  <File Format>  (1) 
g03

$$$$
