/home/yang/projects/t99_calc/v1/qchem_data/combined/log_fchk/cfoh_cis.log
     RDKit          3D

  4  3  0  0  0  0  0  0  0  0999 V2000
   -0.0105    0.6269    0.0001 C   0  0  0  0  0  2  0  0  0  0  0  0
    1.0471   -0.1964   -0.0000 F   0  0  0  0  0  0  0  0  0  0  0  0
   -0.8469   -1.0659    0.0005 H   0  0  0  0  0  0  0  0  0  0  0  0
   -1.0642   -0.1160   -0.0001 O   0  0  0  0  0  0  0  0  0  0  0  0
  2  1  1  0
  4  1  1  0
  4  3  1  0
M  RAD  1   1   3
M  END
>  <program>  (1) 
Gaussian 16, Revision A.03

>  <basis>  (1) 
6-311+G(2d,2p) (5D, 7F)

>  <File Format>  (1) 
g03

$$$$
