/home/yang/projects/t99_calc/v1/qchem_data/combined/log_fchk/cfoh3.log
     RDKit          3D

  8  7  0  0  0  0  0  0  0  0999 V2000
   -0.0093    0.0202    0.0006 C   0  0  0  0  0  0  0  0  0  0  0  0
   -0.0806   -0.6781   -1.1736 F   0  0  0  0  0  0  0  0  0  0  0  0
    0.6854    1.1787   -0.1647 O   0  0  0  0  0  0  0  0  0  0  0  0
    0.6560   -0.7586    0.9233 O   0  0  0  0  0  0  0  0  0  0  0  0
    0.1951   -1.5977    0.9932 H   0  0  0  0  0  0  0  0  0  0  0  0
    1.6227    0.9735   -0.1432 H   0  0  0  0  0  0  0  0  0  0  0  0
   -1.3080    0.2882    0.3262 O   0  0  0  0  0  0  0  0  0  0  0  0
   -1.3034    0.9402    1.0297 H   0  0  0  0  0  0  0  0  0  0  0  0
  1  7  1  0
  1  4  1  0
  2  1  1  0
  3  6  1  0
  3  1  1  0
  4  5  1  0
  7  8  1  0
M  END
>  <program>  (1) 
Gaussian 16, Revision A.03

>  <basis>  (1) 
6-311+G(2d,2p) (5D, 7F)

>  <File Format>  (1) 
g03

$$$$
