/home/yang/projects/t99_calc/v1/qchem_data/combined/log_fchk/ch2F.log
     RDKit          3D

  4  3  0  0  0  0  0  0  0  0999 V2000
    0.6516    0.0000   -0.0592 C   0  0  0  0  0  3  0  0  0  0  0  0
    1.1150    0.9564    0.1319 H   0  0  0  0  0  0  0  0  0  0  0  0
    1.1150   -0.9564    0.1319 H   0  0  0  0  0  0  0  0  0  0  0  0
   -0.6822    0.0000    0.0102 F   0  0  0  0  0  0  0  0  0  0  0  0
  1  4  1  0
  1  2  1  0
  1  3  1  0
M  RAD  1   1   2
M  END
>  <program>  (1) 
Gaussian 16, Revision A.03

>  <basis>  (1) 
6-311+G(2d,2p) (5D, 7F)

>  <File Format>  (1) 
g03

$$$$
