Title Card Required
     RDKit          3D

  4  3  0  0  0  0  0  0  0  0999 V2000
   -0.0000   -0.0000    0.0000 C   0  0  0  0  0  3  0  0  0  0  0  0
    0.0000    1.0783   -0.0000 H   0  0  0  0  0  0  0  0  0  0  0  0
    0.9338   -0.5391   -0.0000 H   0  0  0  0  0  0  0  0  0  0  0  0
   -0.9338   -0.5391   -0.0000 H   0  0  0  0  0  0  0  0  0  0  0  0
  1  2  1  0
  1  3  1  0
  1  4  1  0
M  RAD  1   1   2
M  END
$$$$
