/home/yang/projects/t99_calc/v1/qchem_data/combined/log_fchk/chfo2.log
     RDKit          3D

  5  4  0  0  0  0  0  0  0  0999 V2000
   -0.1472    0.0808    0.0000 C   0  0  0  0  0  0  0  0  0  0  0  0
    0.1980   -1.2236   -0.0000 F   0  0  0  0  0  0  0  0  0  0  0  0
    0.9355    0.8363   -0.0000 O   0  0  0  0  0  0  0  0  0  0  0  0
    1.7233    0.2808   -0.0000 H   0  0  0  0  0  0  0  0  0  0  0  0
   -1.2632    0.4445   -0.0000 O   0  0  0  0  0  0  0  0  0  0  0  0
  2  1  1  0
  3  4  1  0
  3  1  1  0
  5  1  2  0
M  END
>  <program>  (1) 
Gaussian 16, Revision A.03

>  <basis>  (1) 
6-311+G(2d) (5D, 7F)

>  <File Format>  (1) 
g03

$$$$
