/home/yang/projects/t99_calc/v1/qchem_data/combined/log_fchk/cho2h.log
     RDKit          3D

  5  4  0  0  0  0  0  0  0  0999 V2000
   -0.1338    0.3985   -0.0003 C   0  0  0  0  0  0  0  0  0  0  0  0
    1.0469   -1.0528   -0.0001 H   0  0  0  0  0  0  0  0  0  0  0  0
    1.1109   -0.0899    0.0001 O   0  0  0  0  0  0  0  0  0  0  0  0
   -1.1279   -0.2640    0.0001 O   0  0  0  0  0  0  0  0  0  0  0  0
   -0.1079    1.4935    0.0005 H   0  0  0  0  0  0  0  0  0  0  0  0
  1  3  1  0
  1  4  2  0
  1  5  1  0
  2  3  1  0
M  END
>  <program>  (1) 
Gaussian 16, Revision A.03

>  <basis>  (1) 
6-311+G(2d,2p) (5D, 7F)

>  <File Format>  (1) 
g03

$$$$
