Title Card Required
     RDKit          3D

  4  3  0  0  0  0  0  0  0  0999 V2000
    0.1325   -0.4208    0.0000 C   0  0  0  0  0  3  0  0  0  0  0  0
    1.1507    0.1732   -0.0000 O   0  0  0  0  0  0  0  0  0  0  0  0
   -1.1118    0.0184   -0.0000 O   0  0  0  0  0  0  0  0  0  0  0  0
   -1.1060    0.9919    0.0000 H   0  0  0  0  0  0  0  0  0  0  0  0
  1  2  2  0
  1  3  1  0
  3  4  1  0
M  RAD  1   1   2
M  END
$$$$
