/home/yang/projects/t99_calc/v1/qchem_data/combined/log_fchk/cooh2.log
     RDKit          3D

  6  5  0  0  0  0  0  0  0  0999 V2000
    0.0001    0.0983    0.0001 C   0  0  0  0  0  0  0  0  0  0  0  0
    0.0004    1.2983   -0.0001 O   0  0  0  0  0  0  0  0  0  0  0  0
    1.0834   -0.6755   -0.0001 O   0  0  0  0  0  0  0  0  0  0  0  0
    1.8429   -0.0865    0.0007 H   0  0  0  0  0  0  0  0  0  0  0  0
   -1.0838   -0.6750   -0.0000 O   0  0  0  0  0  0  0  0  0  0  0  0
   -1.8429   -0.0854    0.0004 H   0  0  0  0  0  0  0  0  0  0  0  0
  2  1  2  0
  3  1  1  0
  3  4  1  0
  5  1  1  0
  5  6  1  0
M  END
>  <program>  (1) 
Gaussian 16, Revision A.03

>  <basis>  (1) 
6-311+G(2d,2p) (5D, 7F)

>  <File Format>  (1) 
g03

$$$$
