Title Card Required
     RDKit          3D

  9  9  0  0  0  0  0  0  0  0999 V2000
   -0.1316   -0.8654   -0.0001 C   0  0  0  0  0  0  0  0  0  0  0  0
   -0.2421   -1.5912   -1.1011 F   0  0  0  0  0  0  0  0  0  0  0  0
   -0.2422   -1.5912    1.1010 F   0  0  0  0  0  0  0  0  0  0  0  0
   -0.6837    0.5470   -0.0001 C   0  0  0  0  0  0  0  0  0  0  0  0
   -1.2575    1.0049    1.1011 F   0  0  0  0  0  0  0  0  0  0  0  0
   -1.2573    1.0054   -1.1011 F   0  0  0  0  0  0  0  0  0  0  0  0
    0.8155    0.3189    0.0001 C   0  0  0  0  0  0  0  0  0  0  0  0
    1.4996    0.5858   -1.1010 F   0  0  0  0  0  0  0  0  0  0  0  0
    1.4994    0.5861    1.1012 F   0  0  0  0  0  0  0  0  0  0  0  0
  1  2  1  0
  1  3  1  0
  1  4  1  0
  1  7  1  0
  4  5  1  0
  4  6  1  0
  4  7  1  0
  7  8  1  0
  7  9  1  0
M  END
$$$$
