/home/yang/projects/t99_calc/v1/qchem_data/combined/log_fchk/e1.log
     RDKit          3D

 18 17  0  0  1  0  0  0  0  0999 V2000
    2.7757   -0.1136    0.3053 C   0  0  0  0  0  0  0  0  0  0  0  0
    3.6749   -1.0141   -0.0736 F   0  0  0  0  0  0  0  0  0  0  0  0
    3.2335    1.0950    0.0089 F   0  0  0  0  0  0  0  0  0  0  0  0
    2.6096   -0.2043    1.6178 F   0  0  0  0  0  0  0  0  0  0  0  0
    1.4444   -0.4013   -0.4436 C   0  0  0  0  0  0  0  0  0  0  0  0
    1.6920   -0.3193   -1.7570 F   0  0  0  0  0  0  0  0  0  0  0  0
    1.0700   -1.6510   -0.1429 F   0  0  0  0  0  0  0  0  0  0  0  0
    0.6237    1.8193   -0.3625 F   0  0  0  0  0  0  0  0  0  0  0  0
   -0.0036    0.4756    1.2074 F   0  0  0  0  0  0  0  0  0  0  0  0
    0.2661    0.5536   -0.1000 C   0  0  0  0  0  0  0  0  0  0  0  0
   -0.7744    0.1647   -0.8833 O   0  0  0  0  0  0  0  0  0  0  0  0
   -2.0805    0.6028   -0.6526 C   0  0  1  0  0  0  0  0  0  0  0  0
   -2.8964   -0.4561    0.1129 C   0  0  0  0  0  0  0  0  0  0  0  0
   -2.1268    1.7688    0.0233 F   0  0  0  0  0  0  0  0  0  0  0  0
   -2.8577   -1.6053   -0.5595 F   0  0  0  0  0  0  0  0  0  0  0  0
   -2.5347    0.7342   -1.6353 H   0  0  0  0  0  0  0  0  0  0  0  0
   -2.4538   -0.6670    1.3425 F   0  0  0  0  0  0  0  0  0  0  0  0
   -4.1647   -0.0493    0.1812 F   0  0  0  0  0  0  0  0  0  0  0  0
  1  4  1  0
  2  1  1  0
  3  1  1  0
  5  7  1  0
  5 10  1  0
  5  1  1  0
  6  5  1  0
  8 10  1  0
 10  9  1  0
 11 12  1  0
 11 10  1  0
 12 16  1  6
 12 14  1  0
 12 13  1  0
 13 18  1  0
 13 17  1  0
 15 13  1  0
M  END
>  <program>  (1) 
Gaussian 16, Revision A.03

>  <basis>  (1) 
6-311+G(2d) (5D, 7F)

>  <File Format>  (1) 
g03

$$$$
