/home/yang/projects/t99_calc/v1/qchem_data/combined/log_fchk/ester.log
     RDKit          3D

 17 16  0  0  0  0  0  0  0  0999 V2000
    2.9141    0.0505    0.0000 C   0  0  0  0  0  0  0  0  0  0  0  0
    3.7230    1.1016   -0.0006 F   0  0  0  0  0  0  0  0  0  0  0  0
    3.1588   -0.6778    1.0805 F   0  0  0  0  0  0  0  0  0  0  0  0
    3.1586   -0.6790   -1.0797 F   0  0  0  0  0  0  0  0  0  0  0  0
    1.4448    0.5581   -0.0001 C   0  0  0  0  0  0  0  0  0  0  0  0
    1.2701    1.3118    1.0915 F   0  0  0  0  0  0  0  0  0  0  0  0
    1.2701    1.3114   -1.0920 F   0  0  0  0  0  0  0  0  0  0  0  0
    0.4943   -1.3195    1.0831 F   0  0  0  0  0  0  0  0  0  0  0  0
    0.4940   -1.3194   -1.0830 F   0  0  0  0  0  0  0  0  0  0  0  0
    0.3617   -0.5573    0.0001 C   0  0  0  0  0  0  0  0  0  0  0  0
   -0.8548    0.0976    0.0003 O   0  0  0  0  0  0  0  0  0  0  0  0
   -2.0005   -0.6310    0.0000 C   0  0  0  0  0  0  0  0  0  0  0  0
   -3.1940    0.3543    0.0001 C   0  0  0  0  0  0  0  0  0  0  0  0
   -3.1492    1.1287    1.0819 F   0  0  0  0  0  0  0  0  0  0  0  0
   -3.1479    1.1304   -1.0806 F   0  0  0  0  0  0  0  0  0  0  0  0
   -4.3282   -0.3192   -0.0012 F   0  0  0  0  0  0  0  0  0  0  0  0
   -2.1012   -1.8063   -0.0002 O   0  0  0  0  0  0  0  0  0  0  0  0
  1  3  1  0
  2  1  1  0
  4  1  1  0
  5  1  1  0
  5 10  1  0
  5  6  1  0
  7  5  1  0
  9 10  1  0
 10 11  1  0
 10  8  1  0
 12 13  1  0
 12 11  1  0
 13 14  1  0
 15 13  1  0
 16 13  1  0
 17 12  2  0
M  END
>  <program>  (1) 
Gaussian 16, Revision A.03

>  <basis>  (1) 
6-311+G(2d) (5D, 7F)

>  <File Format>  (1) 
g03

$$$$
