/home/yang/projects/t99_calc/v1/qchem_data/combined/log_fchk/ethane1H.log
     RDKit          3D

  8  7  0  0  0  0  0  0  0  0999 V2000
    0.6157    0.0003   -0.0018 C   0  0  0  0  0  0  0  0  0  0  0  0
    1.2241   -1.0811   -0.4894 F   0  0  0  0  0  0  0  0  0  0  0  0
    1.2239    1.0812   -0.4891 F   0  0  0  0  0  0  0  0  0  0  0  0
   -0.8574   -0.0000   -0.4375 C   0  0  0  0  0  0  0  0  0  0  0  0
   -1.4590    1.0938    0.0611 F   0  0  0  0  0  0  0  0  0  0  0  0
   -1.4585   -1.0942    0.0616 F   0  0  0  0  0  0  0  0  0  0  0  0
   -0.9369    0.0000   -1.5253 H   0  0  0  0  0  0  0  0  0  0  0  0
    0.7348    0.0001    1.3181 F   0  0  0  0  0  0  0  0  0  0  0  0
  1  8  1  0
  2  1  1  0
  3  1  1  0
  4  1  1  0
  4  5  1  0
  4  6  1  0
  7  4  1  0
M  END
>  <program>  (1) 
Gaussian 16, Revision A.03

>  <basis>  (1) 
6-311+G(2d,2p) (5D, 7F)

>  <File Format>  (1) 
g03

$$$$
