/home/yang/projects/t99_calc/v1/qchem_data/combined/log_fchk/f.log
     RDKit          3D

  1  0  0  0  0  0  0  0  0  0999 V2000
    0.0000    0.0000    0.0000 F   0  0  0  0  0 15  0  0  0  0  0  0
M  END
>  <program>  (1) 
Gaussian 16, Revision A.03

>  <basis>  (1) 
6-311+G(2d) (5D, 7F)

>  <File Format>  (1) 
g03

$$$$
