/home/yang/projects/t99_calc/v1/qchem_data/combined/log_fchk/fbsa.log
     RDKit          3D

 19 18  0  0  0  0  0  0  0  0999 V2000
   -2.8291   -0.2869   -0.0580 C   0  0  0  0  0  0  0  0  0  0  0  0
   -1.5150    0.5159    0.1736 C   0  0  0  0  0  0  0  0  0  0  0  0
   -0.2128   -0.3210   -0.0217 C   0  0  0  0  0  0  0  0  0  0  0  0
    1.0609    0.5622   -0.1780 C   0  0  0  0  0  0  0  0  0  0  0  0
    2.6408   -0.3893    0.1232 S   0  0  0  0  0  0  0  0  0  0  0  0
    2.7670   -0.5445    1.5369 O   0  0  0  0  0  0  0  0  0  0  0  0
    2.6185   -1.4747   -0.8059 O   0  0  0  0  0  0  0  0  0  0  0  0
    1.0266    1.5781    0.6898 F   0  0  0  0  0  0  0  0  0  0  0  0
    1.1062    1.0494   -1.4205 F   0  0  0  0  0  0  0  0  0  0  0  0
   -0.0644   -1.1196    1.0413 F   0  0  0  0  0  0  0  0  0  0  0  0
   -0.3406   -1.0751   -1.1197 F   0  0  0  0  0  0  0  0  0  0  0  0
   -1.5416    0.9877    1.4242 F   0  0  0  0  0  0  0  0  0  0  0  0
   -1.5157    1.5469   -0.6847 F   0  0  0  0  0  0  0  0  0  0  0  0
   -2.8167   -1.4139    0.6423 F   0  0  0  0  0  0  0  0  0  0  0  0
   -2.9884   -0.5729   -1.3415 F   0  0  0  0  0  0  0  0  0  0  0  0
   -3.8551    0.4546    0.3413 F   0  0  0  0  0  0  0  0  0  0  0  0
    3.7211    0.7275   -0.3709 N   0  0  0  0  0  0  0  0  0  0  0  0
    4.3209    1.0538    0.3700 H   0  0  0  0  0  0  0  0  0  0  0  0
    4.1766    0.4972   -1.2397 H   0  0  0  0  0  0  0  0  0  0  0  0
  1  2  1  0
  1 16  1  0
  1 14  1  0
  2 12  1  0
  3  2  1  0
  3 10  1  0
  4  3  1  0
  4  5  1  0
  4  8  1  0
  5  6  2  0
  7  5  2  0
  9  4  1  0
 11  3  1  0
 13  2  1  0
 15  1  1  0
 17  5  1  0
 17 18  1  0
 19 17  1  0
M  END
>  <program>  (1) 
Gaussian 16, Revision C.02

>  <basis>  (1) 
6-311+G(2d,2p) (5D, 7F)

>  <File Format>  (1) 
g03

$$$$
