/home/yang/projects/t99_calc/v1/qchem_data/combined/log_fchk/frd_903_0HFAts_prod_minusHF.log
     RDKit          3D

 19 19  0  0  1  0  0  0  0  0999 V2000
    3.0938    0.0213    0.1799 C   0  0  0  0  0  0  0  0  0  0  0  0
    4.0484   -0.8263   -0.1784 F   0  0  0  0  0  0  0  0  0  0  0  0
    3.3460    1.2052   -0.3604 F   0  0  0  0  0  0  0  0  0  0  0  0
    3.0957    0.1369    1.5006 F   0  0  0  0  0  0  0  0  0  0  0  0
    1.7299   -0.5319   -0.3210 C   0  0  0  0  0  0  0  0  0  0  0  0
    1.7977   -0.6531   -1.6512 F   0  0  0  0  0  0  0  0  0  0  0  0
    1.5486   -1.7384    0.2269 F   0  0  0  0  0  0  0  0  0  0  0  0
    0.6368    1.5696   -0.4992 F   0  0  0  0  0  0  0  0  0  0  0  0
    0.3796    0.4855    1.3478 F   0  0  0  0  0  0  0  0  0  0  0  0
    0.4971    0.3464    0.0248 C   0  0  0  0  0  0  0  0  0  0  0  0
   -0.5941   -0.2933   -0.5004 O   0  0  0  0  0  0  0  0  0  0  0  0
   -1.8353    0.2115   -0.2359 C   0  0  1  0  0  0  0  0  0  0  0  0
   -2.1723    1.6217   -0.0451 C   0  0  0  0  0  0  0  0  0  0  0  0
   -2.3969    1.1194   -1.2550 O   0  0  0  0  0  0  0  0  0  0  0  0
   -2.2603    2.6263    0.5532 O   0  0  0  0  0  0  0  0  0  0  0  0
   -2.7856   -0.9129    0.1580 C   0  0  0  0  0  0  0  0  0  0  0  0
   -2.8632   -1.8214   -0.8081 F   0  0  0  0  0  0  0  0  0  0  0  0
   -2.3394   -1.5014    1.2626 F   0  0  0  0  0  0  0  0  0  0  0  0
   -4.0007   -0.4293    0.3876 F   0  0  0  0  0  0  0  0  0  0  0  0
  1  4  1  0
  2  1  1  0
  3  1  1  0
  5 10  1  0
  5  1  1  0
  5  7  1  0
  6  5  1  0
  8 10  1  0
 10  9  1  0
 11 10  1  0
 12 11  1  6
 12 13  1  0
 12 16  1  0
 13 15  2  0
 14 12  1  0
 14 13  1  0
 16 19  1  0
 16 18  1  0
 17 16  1  0
M  END
>  <program>  (1) 
Gaussian 16, Revision A.03

>  <basis>  (1) 
6-311+G(2d) (5D, 7F)

>  <File Format>  (1) 
g03

$$$$
