Title Card Required
     RDKit          3D

 21 20  0  0  1  0  0  0  0  0999 V2000
   -3.2459    0.0522   -0.0466 C   0  0  0  0  0  0  0  0  0  0  0  0
   -4.1380   -0.8378   -0.4608 F   0  0  0  0  0  0  0  0  0  0  0  0
   -3.5563    0.4281    1.1853 F   0  0  0  0  0  0  0  0  0  0  0  0
   -3.2923    1.1096   -0.8477 F   0  0  0  0  0  0  0  0  0  0  0  0
   -1.8371   -0.6017   -0.0851 C   0  0  0  0  0  0  0  0  0  0  0  0
   -1.8465   -1.6497    0.7455 F   0  0  0  0  0  0  0  0  0  0  0  0
   -1.6152   -1.0281   -1.3346 F   0  0  0  0  0  0  0  0  0  0  0  0
   -0.8649    0.8195    1.5337 F   0  0  0  0  0  0  0  0  0  0  0  0
   -0.5807    1.3549   -0.5431 F   0  0  0  0  0  0  0  0  0  0  0  0
   -0.6588    0.3294    0.3171 C   0  0  0  0  0  0  0  0  0  0  0  0
    0.4830   -0.4340    0.2982 O   0  0  0  0  0  0  0  0  0  0  0  0
    1.6428    0.0268   -0.2735 C   0  0  1  0  0  0  0  0  0  0  0  0
    2.0383    1.4815    0.1210 C   0  0  0  0  0  0  0  0  0  0  0  0
    1.9992    1.8310    1.2551 O   0  0  0  0  0  0  0  0  0  0  0  0
    2.4408    2.2482   -0.8821 O   0  0  0  0  0  0  0  0  0  0  0  0
    2.3590    1.7839   -1.7219 H   0  0  0  0  0  0  0  0  0  0  0  0
    2.7458   -0.9724    0.1632 C   0  0  0  0  0  0  0  0  0  0  0  0
    1.5672   -0.0649   -1.6415 F   0  0  0  0  0  0  0  0  0  0  0  0
    2.8544   -1.0196    1.4776 F   0  0  0  0  0  0  0  0  0  0  0  0
    2.4679   -2.1844   -0.2950 F   0  0  0  0  0  0  0  0  0  0  0  0
    3.9094   -0.5765   -0.3556 F   0  0  0  0  0  0  0  0  0  0  0  0
  1  2  1  0
  1  3  1  0
  1  4  1  0
  1  5  1  0
  5  6  1  0
  5  7  1  0
  5 10  1  0
  8 10  1  0
  9 10  1  0
 10 11  1  0
 11 12  1  0
 12 13  1  0
 12 17  1  0
 12 18  1  6
 13 14  2  0
 13 15  1  0
 15 16  1  0
 17 19  1  0
 17 20  1  0
 17 21  1  0
M  END
$$$$
