/home/yang/projects/t99_calc/v1/qchem_data/combined/log_fchk/h2o.log
     RDKit          3D

  3  2  0  0  0  0  0  0  0  0999 V2000
   -0.0000    0.1162   -0.0000 O   0  0  0  0  0  0  0  0  0  0  0  0
    0.7598   -0.4648    0.0000 H   0  0  0  0  0  0  0  0  0  0  0  0
   -0.7598   -0.4648    0.0000 H   0  0  0  0  0  0  0  0  0  0  0  0
  1  2  1  0
  1  3  1  0
M  END
>  <program>  (1) 
Gaussian 16, Revision A.03

>  <basis>  (1) 
6-311+G(2d,2p) (5D, 7F)

>  <File Format>  (1) 
g03

$$$$
