Title Card Required
     RDKit          3D

 20 19  0  0  0  0  0  0  0  0999 V2000
    3.2699   -0.1659    0.1720 C   0  0  0  0  0  0  0  0  0  0  0  0
    1.9215    0.5062   -0.2234 C   0  0  0  0  0  0  0  0  0  0  0  0
    0.6713   -0.3999    0.0033 C   0  0  0  0  0  0  0  0  0  0  0  0
   -0.6713    0.3999    0.0031 C   0  0  0  0  0  0  0  0  0  0  0  0
   -1.9215   -0.5062   -0.2235 C   0  0  0  0  0  0  0  0  0  0  0  0
   -3.2699    0.1659    0.1721 C   0  0  0  0  0  0  0  0  0  0  0  0
    3.3709   -0.2836    1.4873 F   0  0  0  0  0  0  0  0  0  0  0  0
    3.3710   -1.3676   -0.3831 F   0  0  0  0  0  0  0  0  0  0  0  0
    1.9909    0.8263   -1.5194 F   0  0  0  0  0  0  0  0  0  0  0  0
    1.8009    1.6271    0.5014 F   0  0  0  0  0  0  0  0  0  0  0  0
    0.7910   -1.0231    1.1825 F   0  0  0  0  0  0  0  0  0  0  0  0
    0.6373   -1.3171   -0.9719 F   0  0  0  0  0  0  0  0  0  0  0  0
   -0.6371    1.3168   -0.9722 F   0  0  0  0  0  0  0  0  0  0  0  0
   -0.7912    1.0233    1.1822 F   0  0  0  0  0  0  0  0  0  0  0  0
   -1.9912   -0.8262   -1.5196 F   0  0  0  0  0  0  0  0  0  0  0  0
   -1.8009   -1.6271    0.5012 F   0  0  0  0  0  0  0  0  0  0  0  0
   -3.3707    0.2833    1.4875 F   0  0  0  0  0  0  0  0  0  0  0  0
   -3.3708    1.3677   -0.3827 F   0  0  0  0  0  0  0  0  0  0  0  0
    4.2661    0.5934   -0.2644 F   0  0  0  0  0  0  0  0  0  0  0  0
   -4.2662   -0.5932   -0.2644 F   0  0  0  0  0  0  0  0  0  0  0  0
  1  2  1  0
  1  7  1  0
  1  8  1  0
  1 19  1  0
  2  3  1  0
  2  9  1  0
  2 10  1  0
  3  4  1  0
  3 11  1  0
  3 12  1  0
  4  5  1  0
  4 13  1  0
  4 14  1  0
  5  6  1  0
  5 15  1  0
  5 16  1  0
  6 17  1  0
  6 18  1  0
  6 20  1  0
M  END
$$$$
