/home/yang/projects/t99_calc/v1/qchem_data/combined/log_fchk/hexane1H.log
     RDKit          3D

 20 19  0  0  0  0  0  0  0  0999 V2000
   -0.4599    0.4121    0.0480 C   0  0  0  0  0  0  0  0  0  0  0  0
   -0.4638    1.2260    1.1122 F   0  0  0  0  0  0  0  0  0  0  0  0
   -0.5835    1.1502   -1.0631 F   0  0  0  0  0  0  0  0  0  0  0  0
    0.9038   -0.3480   -0.0121 C   0  0  0  0  0  0  0  0  0  0  0  0
    0.8792   -1.3573    0.8689 F   0  0  0  0  0  0  0  0  0  0  0  0
    1.0518   -0.8495   -1.2448 F   0  0  0  0  0  0  0  0  0  0  0  0
    2.1288    0.5573    0.3146 C   0  0  0  0  0  0  0  0  0  0  0  0
    2.1797    0.7497    1.6443 F   0  0  0  0  0  0  0  0  0  0  0  0
    1.9773    1.7513   -0.2849 F   0  0  0  0  0  0  0  0  0  0  0  0
    3.5011   -0.0052   -0.1118 C   0  0  0  0  0  0  0  0  0  0  0  0
    3.6230    0.0123   -1.4481 F   0  0  0  0  0  0  0  0  0  0  0  0
    3.6309   -1.2717    0.3233 F   0  0  0  0  0  0  0  0  0  0  0  0
    4.2823    0.6144    0.3330 H   0  0  0  0  0  0  0  0  0  0  0  0
   -1.6893   -0.5423    0.1622 C   0  0  0  0  0  0  0  0  0  0  0  0
   -3.0495    0.1326   -0.1845 C   0  0  0  0  0  0  0  0  0  0  0  0
   -3.1369    0.3818   -1.4824 F   0  0  0  0  0  0  0  0  0  0  0  0
   -3.1911    1.2683    0.4885 F   0  0  0  0  0  0  0  0  0  0  0  0
   -1.7693   -0.9935    1.4184 F   0  0  0  0  0  0  0  0  0  0  0  0
   -1.5317   -1.5813   -0.6696 F   0  0  0  0  0  0  0  0  0  0  0  0
   -4.0315   -0.6923    0.1561 F   0  0  0  0  0  0  0  0  0  0  0  0
  1 14  1  0
  1  2  1  0
  3  1  1  0
  4  1  1  0
  4  7  1  0
  4  5  1  0
  6  4  1  0
  7  8  1  0
  9  7  1  0
 10  7  1  0
 10 12  1  0
 10 13  1  0
 11 10  1  0
 14 18  1  0
 15 20  1  0
 15 14  1  0
 15 17  1  0
 16 15  1  0
 19 14  1  0
M  END
>  <program>  (1) 
Gaussian 16, Revision A.03

>  <basis>  (1) 
6-311+G(2d,2p) (5D, 7F)

>  <File Format>  (1) 
g03

$$$$
