/home/yang/projects/t99_calc/v1/qchem_data/combined/log_fchk/lactone.log
     RDKit          3D

  6  6  0  0  0  0  0  0  0  0999 V2000
   -0.4831    0.0000   -0.0628 C   0  0  0  0  0  0  0  0  0  0  0  0
   -1.2161   -1.0777   -0.2426 F   0  0  0  0  0  0  0  0  0  0  0  0
    0.9638    0.0000   -0.0701 C   0  0  0  0  0  0  0  0  0  0  0  0
    0.3139    0.0000    1.1251 O   0  0  0  0  0  0  0  0  0  0  0  0
    2.0619   -0.0000   -0.4797 O   0  0  0  0  0  0  0  0  0  0  0  0
   -1.2161    1.0777   -0.2426 F   0  0  0  0  0  0  0  0  0  0  0  0
  1  4  1  0
  2  1  1  0
  3  1  1  0
  3  4  1  0
  5  3  2  0
  6  1  1  0
M  END
>  <program>  (1) 
Gaussian 16, Revision A.03

>  <basis>  (1) 
6-311+G(2d,2p) (5D, 7F)

>  <File Format>  (1) 
g03

$$$$
