/home/yang/projects/t99_calc/v1/qchem_data/combined/log_fchk/n_octane_twisted.log
     RDKit          3D

 26 25  0  0  0  0  0  0  0  0999 V2000
   -4.5589   -0.1600    0.2500 C   0  0  0  0  0  0  0  0  0  0  0  0
   -3.2335    0.4213   -0.3259 C   0  0  0  0  0  0  0  0  0  0  0  0
   -1.9556   -0.3585    0.1151 C   0  0  0  0  0  0  0  0  0  0  0  0
   -0.6380    0.4520   -0.1116 C   0  0  0  0  0  0  0  0  0  0  0  0
    0.6380   -0.4520   -0.1116 C   0  0  0  0  0  0  0  0  0  0  0  0
    1.9556    0.3585    0.1151 C   0  0  0  0  0  0  0  0  0  0  0  0
    3.2335   -0.4213   -0.3259 C   0  0  0  0  0  0  0  0  0  0  0  0
    4.5589    0.1600    0.2500 C   0  0  0  0  0  0  0  0  0  0  0  0
   -5.5800    0.4316   -0.3558 F   0  0  0  0  0  0  0  0  0  0  0  0
   -4.6278   -1.4673    0.0296 F   0  0  0  0  0  0  0  0  0  0  0  0
   -3.3198    0.3873   -1.6596 F   0  0  0  0  0  0  0  0  0  0  0  0
   -1.8979   -1.4977   -0.5866 F   0  0  0  0  0  0  0  0  0  0  0  0
   -0.7103    1.0811   -1.2909 F   0  0  0  0  0  0  0  0  0  0  0  0
    0.7103   -1.0811   -1.2909 F   0  0  0  0  0  0  0  0  0  0  0  0
    1.8979    1.4977   -0.5866 F   0  0  0  0  0  0  0  0  0  0  0  0
    3.3198   -0.3873   -1.6596 F   0  0  0  0  0  0  0  0  0  0  0  0
    4.6278    1.4673    0.0296 F   0  0  0  0  0  0  0  0  0  0  0  0
    5.5800   -0.4316   -0.3558 F   0  0  0  0  0  0  0  0  0  0  0  0
    3.1426   -1.6962    0.0774 F   0  0  0  0  0  0  0  0  0  0  0  0
    4.6481   -0.0678    1.5516 F   0  0  0  0  0  0  0  0  0  0  0  0
    2.0527    0.6537    1.4175 F   0  0  0  0  0  0  0  0  0  0  0  0
    0.5293   -1.3610    0.8652 F   0  0  0  0  0  0  0  0  0  0  0  0
   -0.5293    1.3610    0.8652 F   0  0  0  0  0  0  0  0  0  0  0  0
   -2.0527   -0.6537    1.4175 F   0  0  0  0  0  0  0  0  0  0  0  0
   -3.1426    1.6962    0.0774 F   0  0  0  0  0  0  0  0  0  0  0  0
   -4.6481    0.0679    1.5516 F   0  0  0  0  0  0  0  0  0  0  0  0
  1 26  1  0
  2 25  1  0
  2  3  1  0
  2  1  1  0
  3 24  1  0
  4  3  1  0
  4 23  1  0
  5  4  1  0
  5  6  1  0
  5 22  1  0
  6 21  1  0
  7 19  1  0
  7  6  1  0
  7  8  1  0
  8 20  1  0
  9  1  1  0
 10  1  1  0
 11  2  1  0
 12  3  1  0
 13  4  1  0
 14  5  1  0
 15  6  1  0
 16  7  1  0
 17  8  1  0
 18  8  1  0
M  END
>  <program>  (1) 
Gaussian 16, Revision C.02

>  <basis>  (1) 
6-311+G(2d) (5D, 7F)

>  <File Format>  (1) 
g03

$$$$
