Title Card Required
     RDKit          3D

 25 24  0  0  0  0  0  0  0  0999 V2000
    3.8159    0.0048   -0.2002 C   0  0  0  0  0  0  0  0  0  0  0  0
    2.3967   -0.6348   -0.1578 C   0  0  0  0  0  0  0  0  0  0  0  0
    1.2381    0.3943    0.0223 C   0  0  0  0  0  0  0  0  0  0  0  0
   -0.1029   -0.2695    0.4534 C   0  0  0  0  0  0  0  0  0  0  0  0
   -1.5916    0.8253    0.1737 S   0  0  0  0  0  0  0  0  0  0  0  0
   -1.3312    2.0338    0.8829 O   0  0  0  0  0  0  0  0  0  0  0  0
   -1.8625    0.7605   -1.2363 O   0  0  0  0  0  0  0  0  0  0  0  0
    2.3743   -1.5080    0.8604 F   0  0  0  0  0  0  0  0  0  0  0  0
    2.2104   -1.2951   -1.3049 F   0  0  0  0  0  0  0  0  0  0  0  0
    4.1600    0.4660    0.9924 F   0  0  0  0  0  0  0  0  0  0  0  0
    3.8510    0.9971   -1.0802 F   0  0  0  0  0  0  0  0  0  0  0  0
    4.6887   -0.9250   -0.5650 F   0  0  0  0  0  0  0  0  0  0  0  0
   -2.7671    0.0251    0.9281 N   0  0  0  0  0  0  0  0  0  0  0  0
   -2.9572    0.3290    1.8683 H   0  0  0  0  0  0  0  0  0  0  0  0
   -3.5806   -1.0182    0.3191 C   0  0  0  0  0  0  0  0  0  0  0  0
   -2.9894   -1.5429   -0.4305 H   0  0  0  0  0  0  0  0  0  0  0  0
   -3.8623   -1.7326    1.0864 H   0  0  0  0  0  0  0  0  0  0  0  0
   -3.8016    0.6706   -1.4058 H   0  0  0  0  0  0  0  0  0  0  0  0
   -4.8689   -0.5076   -0.3347 C   0  0  0  0  0  0  0  0  0  0  0  0
   -4.7324    0.4530   -1.2478 O   0  0  0  0  0  0  0  0  0  0  0  0
   -5.9360   -0.9661   -0.0516 O   0  0  0  0  0  0  0  0  0  0  0  0
   -0.0618   -0.5548    1.7567 F   0  0  0  0  0  0  0  0  0  0  0  0
    1.5823    1.2847    0.9585 F   0  0  0  0  0  0  0  0  0  0  0  0
    1.0518    1.0296   -1.1399 F   0  0  0  0  0  0  0  0  0  0  0  0
   -0.3065   -1.4021   -0.2319 F   0  0  0  0  0  0  0  0  0  0  0  0
  1  2  1  0
  1 10  1  0
  1 11  1  0
  1 12  1  0
  2  3  1  0
  2  8  1  0
  2  9  1  0
  3  4  1  0
  3 23  1  0
  3 24  1  0
  4  5  1  0
  4 22  1  0
  4 25  1  0
  5  6  2  0
  5  7  2  0
  5 13  1  0
 13 14  1  0
 13 15  1  0
 15 16  1  0
 15 17  1  0
 15 19  1  0
 18 20  1  0
 19 20  1  0
 19 21  2  0
M  END
$$$$
