/home/yang/projects/t99_calc/v1/qchem_data/combined/log_fchk/pentane1H.log
     RDKit          3D

 17 16  0  0  0  0  0  0  0  0999 V2000
    1.0811    0.5212    0.1286 C   0  0  0  0  0  0  0  0  0  0  0  0
    1.1153    1.4609   -0.8272 F   0  0  0  0  0  0  0  0  0  0  0  0
    1.1020    1.1145    1.3270 F   0  0  0  0  0  0  0  0  0  0  0  0
   -0.2347   -0.3066    0.0011 C   0  0  0  0  0  0  0  0  0  0  0  0
   -0.1045   -1.1802   -1.0071 F   0  0  0  0  0  0  0  0  0  0  0  0
   -0.4116   -0.9869    1.1413 F   0  0  0  0  0  0  0  0  0  0  0  0
   -1.4945    0.5685   -0.2693 C   0  0  0  0  0  0  0  0  0  0  0  0
   -1.4863    0.9454   -1.5601 F   0  0  0  0  0  0  0  0  0  0  0  0
   -1.4484    1.6715    0.4980 F   0  0  0  0  0  0  0  0  0  0  0  0
   -2.8503   -0.1209   -0.0101 C   0  0  0  0  0  0  0  0  0  0  0  0
   -3.0424   -0.3030    1.3056 F   0  0  0  0  0  0  0  0  0  0  0  0
   -2.8804   -1.3164   -0.6266 F   0  0  0  0  0  0  0  0  0  0  0  0
   -3.6434    0.5146   -0.4090 H   0  0  0  0  0  0  0  0  0  0  0  0
    2.3814   -0.3256   -0.0020 C   0  0  0  0  0  0  0  0  0  0  0  0
    2.5510   -0.7430   -1.2478 F   0  0  0  0  0  0  0  0  0  0  0  0
    2.3375   -1.3765    0.8078 F   0  0  0  0  0  0  0  0  0  0  0  0
    3.4174    0.4321    0.3356 F   0  0  0  0  0  0  0  0  0  0  0  0
  1  3  1  0
  2  1  1  0
  4  1  1  0
  4  6  1  0
  5  4  1  0
  7 10  1  0
  7  4  1  0
  7  9  1  0
  8  7  1  0
 10 11  1  0
 12 10  1  0
 13 10  1  0
 14  1  1  0
 14 17  1  0
 14 16  1  0
 15 14  1  0
M  END
>  <program>  (1) 
Gaussian 16, Revision A.03

>  <basis>  (1) 
6-311+G(2d,2p) (5D, 7F)

>  <File Format>  (1) 
g03

$$$$
