Title Card Required
     RDKit          3D

 17 16  0  0  0  0  0  0  0  0999 V2000
   -2.6131   -0.2715   -0.0650 C   0  0  0  0  0  0  0  0  0  0  0  0
   -3.6333    0.4865    0.3145 F   0  0  0  0  0  0  0  0  0  0  0  0
   -2.7623   -0.5738   -1.3458 F   0  0  0  0  0  0  0  0  0  0  0  0
   -2.6190   -1.3893    0.6510 F   0  0  0  0  0  0  0  0  0  0  0  0
   -1.2916    0.5191    0.1682 C   0  0  0  0  0  0  0  0  0  0  0  0
   -1.2705    1.5372   -0.7029 F   0  0  0  0  0  0  0  0  0  0  0  0
   -1.3230    1.0068    1.4126 F   0  0  0  0  0  0  0  0  0  0  0  0
    0.0001   -0.3394    0.0002 C   0  0  0  0  0  0  0  0  0  0  0  0
   -0.1278   -1.1197   -1.0812 F   0  0  0  0  0  0  0  0  0  0  0  0
    0.1282   -1.1192    1.0819 F   0  0  0  0  0  0  0  0  0  0  0  0
    1.2916    0.5192   -0.1681 C   0  0  0  0  0  0  0  0  0  0  0  0
    1.2706    1.5373    0.7029 F   0  0  0  0  0  0  0  0  0  0  0  0
    1.3227    1.0069   -1.4126 F   0  0  0  0  0  0  0  0  0  0  0  0
    2.6131   -0.2715    0.0648 C   0  0  0  0  0  0  0  0  0  0  0  0
    2.6189   -1.3892   -0.6514 F   0  0  0  0  0  0  0  0  0  0  0  0
    3.6333    0.4866   -0.3145 F   0  0  0  0  0  0  0  0  0  0  0  0
    2.7622   -0.5741    1.3455 F   0  0  0  0  0  0  0  0  0  0  0  0
  1  2  1  0
  1  3  1  0
  1  4  1  0
  1  5  1  0
  5  6  1  0
  5  7  1  0
  5  8  1  0
  8  9  1  0
  8 10  1  0
  8 11  1  0
 11 12  1  0
 11 13  1  0
 11 14  1  0
 14 15  1  0
 14 16  1  0
 14 17  1  0
M  END
$$$$
