/home/yang/projects/t99_calc/v1/qchem_data/combined/log_fchk/pfbal.log
     RDKit          3D

 13 12  0  0  0  0  0  0  0  0999 V2000
    1.7792   -0.0838   -0.0421 C   0  0  0  0  0  0  0  0  0  0  0  0
    0.3369    0.4797   -0.1832 C   0  0  0  0  0  0  0  0  0  0  0  0
   -0.7904   -0.4681    0.3163 C   0  0  0  0  0  0  0  0  0  0  0  0
   -2.1813   -0.0195   -0.1904 C   0  0  0  0  0  0  0  0  0  0  0  0
    0.1151    0.7348   -1.4842 F   0  0  0  0  0  0  0  0  0  0  0  0
    0.2707    1.6258    0.5010 F   0  0  0  0  0  0  0  0  0  0  0  0
    1.9771   -1.0882   -0.8812 F   0  0  0  0  0  0  0  0  0  0  0  0
    1.9879   -0.5039    1.1997 F   0  0  0  0  0  0  0  0  0  0  0  0
   -2.8541   -0.6026   -0.9504 O   0  0  0  0  0  0  0  0  0  0  0  0
   -0.5631   -1.7034   -0.1336 F   0  0  0  0  0  0  0  0  0  0  0  0
   -0.7991   -0.4836    1.6578 F   0  0  0  0  0  0  0  0  0  0  0  0
   -2.5256    1.1332    0.3722 F   0  0  0  0  0  0  0  0  0  0  0  0
    2.6444    0.8821   -0.3207 F   0  0  0  0  0  0  0  0  0  0  0  0
  1  8  1  0
  2  1  1  0
  2  3  1  0
  2  6  1  0
  3 11  1  0
  4  3  1  0
  4 12  1  0
  5  2  1  0
  7  1  1  0
  9  4  2  0
 10  3  1  0
 13  1  1  0
M  END
>  <program>  (1) 
Gaussian 16, Revision A.03

>  <basis>  (1) 
6-311+G(2d,2p) (5D, 7F)

>  <File Format>  (1) 
g03

$$$$
