/home/yang/projects/t99_calc/v1/qchem_data/combined/log_fchk/pfboh.log
     RDKit          3D

 15 14  0  0  0  0  0  0  0  0999 V2000
    1.9913    0.1165    0.0873 C   0  0  0  0  0  0  0  0  0  0  0  0
    2.1811    1.1297   -0.7489 F   0  0  0  0  0  0  0  0  0  0  0  0
    2.1445    0.5457    1.3315 F   0  0  0  0  0  0  0  0  0  0  0  0
    0.5798   -0.5095   -0.1153 C   0  0  0  0  0  0  0  0  0  0  0  0
    0.5808   -1.1359   -1.2976 F   0  0  0  0  0  0  0  0  0  0  0  0
    0.4019   -1.4141    0.8575 F   0  0  0  0  0  0  0  0  0  0  0  0
   -0.5839    0.5272   -0.0993 C   0  0  0  0  0  0  0  0  0  0  0  0
   -0.5531    1.2026   -1.2541 F   0  0  0  0  0  0  0  0  0  0  0  0
   -0.3928    1.3890    0.9111 F   0  0  0  0  0  0  0  0  0  0  0  0
   -1.9982   -0.0981    0.0698 C   0  0  0  0  0  0  0  0  0  0  0  0
   -2.1270   -0.5952    1.3177 F   0  0  0  0  0  0  0  0  0  0  0  0
   -2.1302   -1.1492   -0.7702 F   0  0  0  0  0  0  0  0  0  0  0  0
   -2.9069    0.8559   -0.1751 O   0  0  0  0  0  0  0  0  0  0  0  0
   -3.7869    0.5096    0.0151 H   0  0  0  0  0  0  0  0  0  0  0  0
    2.9068   -0.8142   -0.1546 F   0  0  0  0  0  0  0  0  0  0  0  0
  1  3  1  0
  2  1  1  0
  4  7  1  0
  4  1  1  0
  4  6  1  0
  5  4  1  0
  7 10  1  0
  7  9  1  0
  8  7  1  0
 10 11  1  0
 12 10  1  0
 13 14  1  0
 13 10  1  0
 15  1  1  0
M  END
>  <program>  (1) 
Gaussian 16, Revision C.02

>  <basis>  (1) 
6-311+G(2d) (5D, 7F)

>  <File Format>  (1) 
g03

$$$$
