Title Card Required
     RDKit          3D

 18 17  0  0  0  0  0  0  0  0999 V2000
   -2.7907   -0.3236   -0.0628 C   0  0  0  0  0  0  0  0  0  0  0  0
   -1.4999    0.5052    0.2086 C   0  0  0  0  0  0  0  0  0  0  0  0
   -0.1757   -0.2715   -0.0658 C   0  0  0  0  0  0  0  0  0  0  0  0
    1.0689    0.6620   -0.1778 C   0  0  0  0  0  0  0  0  0  0  0  0
    2.7091   -0.1959    0.1325 S   0  0  0  0  0  0  0  0  0  0  0  0
    2.7903   -0.4692    1.5287 O   0  0  0  0  0  1  0  0  0  0  0  0
    3.6755    0.5506   -0.5879 O   0  0  0  0  0  1  0  0  0  0  0  0
    2.4929   -1.5590   -0.6527 O   0  0  0  0  0  0  0  0  0  0  0  0
    2.1908   -2.2328   -0.0315 H   0  0  0  0  0  0  0  0  0  0  0  0
    0.9944    1.6354    0.7330 F   0  0  0  0  0  0  0  0  0  0  0  0
    1.1046    1.1936   -1.3941 F   0  0  0  0  0  0  0  0  0  0  0  0
    0.0165   -1.1462    0.9360 F   0  0  0  0  0  0  0  0  0  0  0  0
   -0.2957   -0.9564   -1.2096 F   0  0  0  0  0  0  0  0  0  0  0  0
   -1.5184    0.8824    1.4899 F   0  0  0  0  0  0  0  0  0  0  0  0
   -1.5425    1.5913   -0.5748 F   0  0  0  0  0  0  0  0  0  0  0  0
   -2.7251   -1.4984    0.5534 F   0  0  0  0  0  0  0  0  0  0  0  0
   -2.9591   -0.5224   -1.3611 F   0  0  0  0  0  0  0  0  0  0  0  0
   -3.8329    0.3489    0.4044 F   0  0  0  0  0  0  0  0  0  0  0  0
  1  2  1  0
  1 16  1  0
  1 17  1  0
  1 18  1  0
  2  3  1  0
  2 14  1  0
  2 15  1  0
  3  4  1  0
  3 12  1  0
  3 13  1  0
  4  5  1  0
  4 10  1  0
  4 11  1  0
  5  6  1  0
  5  7  1  0
  5  8  1  0
  8  9  1  0
M  RAD  2   6   2   7   2
M  END
$$$$
