Title Card Required
     RDKit          3D

 24 23  0  0  0  0  0  0  0  0999 V2000
    0.0027   -0.5020    0.0137 C   0  0  0  0  0  0  0  0  0  0  0  0
    0.0460   -1.3179   -1.0468 F   0  0  0  0  0  0  0  0  0  0  0  0
   -0.0488   -1.2384    1.1311 F   0  0  0  0  0  0  0  0  0  0  0  0
    1.3040    0.3650    0.0515 C   0  0  0  0  0  0  0  0  0  0  0  0
    1.1812    1.3703   -0.8258 F   0  0  0  0  0  0  0  0  0  0  0  0
    1.4299    0.8749    1.2828 F   0  0  0  0  0  0  0  0  0  0  0  0
    2.5873   -0.4493   -0.3092 C   0  0  0  0  0  0  0  0  0  0  0  0
    2.6138   -0.6249   -1.6347 F   0  0  0  0  0  0  0  0  0  0  0  0
    2.5308   -1.6485    0.2895 F   0  0  0  0  0  0  0  0  0  0  0  0
   -1.2981    0.3596   -0.0856 C   0  0  0  0  0  0  0  0  0  0  0  0
   -2.5833   -0.4252    0.3252 C   0  0  0  0  0  0  0  0  0  0  0  0
   -1.4329    0.7816   -1.3495 F   0  0  0  0  0  0  0  0  0  0  0  0
   -1.1861    1.4243    0.7191 F   0  0  0  0  0  0  0  0  0  0  0  0
   -2.5463   -1.6575   -0.2004 F   0  0  0  0  0  0  0  0  0  0  0  0
   -2.6252   -0.5173    1.6584 F   0  0  0  0  0  0  0  0  0  0  0  0
   -3.9093    0.2441   -0.1438 C   0  0  0  0  0  0  0  0  0  0  0  0
   -3.9316    1.5261    0.2007 F   0  0  0  0  0  0  0  0  0  0  0  0
   -4.0513    0.1435   -1.4568 F   0  0  0  0  0  0  0  0  0  0  0  0
    3.9169    0.2355    0.1220 C   0  0  0  0  0  0  0  0  0  0  0  0
    4.0250    0.2127    1.4665 F   0  0  0  0  0  0  0  0  0  0  0  0
    3.8864    1.5402   -0.2326 F   0  0  0  0  0  0  0  0  0  0  0  0
    4.9299   -0.4186   -0.4627 O   0  0  0  0  0  0  0  0  0  0  0  0
    5.7649   -0.0712   -0.1268 H   0  0  0  0  0  0  0  0  0  0  0  0
   -4.9270   -0.3744    0.4414 F   0  0  0  0  0  0  0  0  0  0  0  0
  1  2  1  0
  1  3  1  0
  1  4  1  0
  1 10  1  0
  4  5  1  0
  4  6  1  0
  4  7  1  0
  7  8  1  0
  7  9  1  0
  7 19  1  0
 10 11  1  0
 10 12  1  0
 10 13  1  0
 11 14  1  0
 11 15  1  0
 11 16  1  0
 16 17  1  0
 16 18  1  0
 16 24  1  0
 19 20  1  0
 19 21  1  0
 19 22  1  0
 22 23  1  0
M  END
$$$$
