/home/yang/projects/t99_calc/v1/qchem_data/combined/log_fchk/pfhpal.log
     RDKit          3D

 22 21  0  0  0  0  0  0  0  0999 V2000
    0.2397    0.4976    0.0938 C   0  0  0  0  0  0  0  0  0  0  0  0
    1.5448   -0.3235   -0.1498 C   0  0  0  0  0  0  0  0  0  0  0  0
    2.8351    0.3847    0.3649 C   0  0  0  0  0  0  0  0  0  0  0  0
    4.1054   -0.2190   -0.2796 C   0  0  0  0  0  0  0  0  0  0  0  0
    1.6959   -0.5197   -1.4699 F   0  0  0  0  0  0  0  0  0  0  0  0
    1.4427   -1.5117    0.4568 F   0  0  0  0  0  0  0  0  0  0  0  0
    0.1852    1.4837   -0.8088 F   0  0  0  0  0  0  0  0  0  0  0  0
    0.2906    1.0270    1.3227 F   0  0  0  0  0  0  0  0  0  0  0  0
    4.8318    0.3341   -1.0122 O   0  0  0  0  0  0  0  0  0  0  0  0
    2.7863    1.6803    0.0513 F   0  0  0  0  0  0  0  0  0  0  0  0
    2.9219    0.2544    1.6966 F   0  0  0  0  0  0  0  0  0  0  0  0
    4.2755   -1.4717    0.1284 F   0  0  0  0  0  0  0  0  0  0  0  0
   -1.0559   -0.3696   -0.0186 C   0  0  0  0  0  0  0  0  0  0  0  0
   -2.3468    0.4844   -0.2188 C   0  0  0  0  0  0  0  0  0  0  0  0
   -3.6674   -0.2874    0.0760 C   0  0  0  0  0  0  0  0  0  0  0  0
   -0.9363   -1.1998   -1.0631 F   0  0  0  0  0  0  0  0  0  0  0  0
   -1.1798   -1.0931    1.1011 F   0  0  0  0  0  0  0  0  0  0  0  0
   -2.3105    1.5488    0.5948 F   0  0  0  0  0  0  0  0  0  0  0  0
   -2.3939    0.9022   -1.4876 F   0  0  0  0  0  0  0  0  0  0  0  0
   -4.6902    0.4510   -0.3332 F   0  0  0  0  0  0  0  0  0  0  0  0
   -3.8008   -0.5157    1.3737 F   0  0  0  0  0  0  0  0  0  0  0  0
   -3.6850   -1.4442   -0.5751 F   0  0  0  0  0  0  0  0  0  0  0  0
  1  8  1  0
  2  1  1  0
  2  3  1  0
  2  6  1  0
  3 11  1  0
  4 12  1  0
  4  3  1  0
  5  2  1  0
  7  1  1  0
  9  4  2  0
 10  3  1  0
 13  1  1  0
 13 17  1  0
 14 13  1  0
 14 15  1  0
 14 18  1  0
 15 21  1  0
 16 13  1  0
 19 14  1  0
 20 15  1  0
 22 15  1  0
M  END
>  <program>  (1) 
Gaussian 16, Revision A.03

>  <basis>  (1) 
6-311+G(2d,2p) (5D, 7F)

>  <File Format>  (1) 
g03

$$$$
