/home/yang/projects/t99_calc/v1/qchem_data/combined/log_fchk/pfhxal.log
     RDKit          3D

 19 18  0  0  0  0  0  0  0  0999 V2000
    0.4399   -0.3952    0.0905 C   0  0  0  0  0  0  0  0  0  0  0  0
   -0.9136    0.3522   -0.1205 C   0  0  0  0  0  0  0  0  0  0  0  0
   -2.1611   -0.4758    0.3141 C   0  0  0  0  0  0  0  0  0  0  0  0
   -3.4591    0.0887   -0.3105 C   0  0  0  0  0  0  0  0  0  0  0  0
   -1.0551    0.6339   -1.4262 F   0  0  0  0  0  0  0  0  0  0  0  0
   -0.9022    1.4972    0.5713 F   0  0  0  0  0  0  0  0  0  0  0  0
    0.5751   -1.3091   -0.8780 F   0  0  0  0  0  0  0  0  0  0  0  0
    0.4086   -1.0168    1.2765 F   0  0  0  0  0  0  0  0  0  0  0  0
   -4.1349   -0.4553   -1.0963 O   0  0  0  0  0  0  0  0  0  0  0  0
   -2.0199   -1.7384   -0.0923 F   0  0  0  0  0  0  0  0  0  0  0  0
   -2.2771   -0.4509    1.6498 F   0  0  0  0  0  0  0  0  0  0  0  0
   -3.7198    1.2935    0.1846 F   0  0  0  0  0  0  0  0  0  0  0  0
    1.6754    0.5576    0.0682 C   0  0  0  0  0  0  0  0  0  0  0  0
    3.0360   -0.1741   -0.1302 C   0  0  0  0  0  0  0  0  0  0  0  0
    1.5402    1.4394   -0.9323 F   0  0  0  0  0  0  0  0  0  0  0  0
    1.7322    1.2161    1.2300 F   0  0  0  0  0  0  0  0  0  0  0  0
    3.1533   -1.1778    0.7307 F   0  0  0  0  0  0  0  0  0  0  0  0
    3.1438   -0.6430   -1.3639 F   0  0  0  0  0  0  0  0  0  0  0  0
    4.0178    0.6916    0.0832 F   0  0  0  0  0  0  0  0  0  0  0  0
  1  8  1  0
  2  1  1  0
  2  3  1  0
  2  6  1  0
  3 11  1  0
  4 12  1  0
  4  3  1  0
  5  2  1  0
  7  1  1  0
  9  4  2  0
 10  3  1  0
 13  1  1  0
 13 16  1  0
 14 13  1  0
 14 19  1  0
 14 17  1  0
 15 13  1  0
 18 14  1  0
M  END
>  <program>  (1) 
Gaussian 16, Revision A.03

>  <basis>  (1) 
6-311+G(2d,2p) (5D, 7F)

>  <File Format>  (1) 
g03

$$$$
