/home/yang/projects/t99_calc/v1/qchem_data/combined/log_fchk/pfhxs.log
     RDKit          3D

 24 23  0  0  0  0  0  0  0  0999 V2000
    0.2120    0.5375   -0.0016 C   0  0  0  0  0  0  0  0  0  0  0  0
    0.1831    1.3290   -1.0820 F   0  0  0  0  0  0  0  0  0  0  0  0
    0.2712    1.2972    1.0978 F   0  0  0  0  0  0  0  0  0  0  0  0
   -1.1085   -0.2996    0.0486 C   0  0  0  0  0  0  0  0  0  0  0  0
   -1.0131   -1.3134   -0.8245 F   0  0  0  0  0  0  0  0  0  0  0  0
   -1.2539   -0.7924    1.2794 F   0  0  0  0  0  0  0  0  0  0  0  0
   -2.3663    0.5453   -0.3267 C   0  0  0  0  0  0  0  0  0  0  0  0
   -2.4223    0.6752   -1.6533 F   0  0  0  0  0  0  0  0  0  0  0  0
   -2.2963    1.7522    0.2372 F   0  0  0  0  0  0  0  0  0  0  0  0
    1.4945   -0.3533   -0.0789 C   0  0  0  0  0  0  0  0  0  0  0  0
    2.7940    0.4138    0.3191 C   0  0  0  0  0  0  0  0  0  0  0  0
    1.6210   -0.8040   -1.3339 F   0  0  0  0  0  0  0  0  0  0  0  0
    1.3555   -1.3982    0.7465 F   0  0  0  0  0  0  0  0  0  0  0  0
    2.7821    1.6336   -0.2361 F   0  0  0  0  0  0  0  0  0  0  0  0
    2.8307    0.5363    1.6495 F   0  0  0  0  0  0  0  0  0  0  0  0
    4.1077   -0.2936   -0.1283 C   0  0  0  0  0  0  0  0  0  0  0  0
    4.1001   -1.5675    0.2454 F   0  0  0  0  0  0  0  0  0  0  0  0
    4.2560   -0.2263   -1.4428 F   0  0  0  0  0  0  0  0  0  0  0  0
   -3.9983   -0.1849    0.2240 S   0  0  0  0  0  0  0  0  0  0  0  0
   -4.9925    0.4351   -0.5884 O   0  0  0  0  0  1  0  0  0  0  0  0
   -4.0221   -0.1866    1.6407 O   0  0  0  0  0  1  0  0  0  0  0  0
   -3.8103   -1.6879   -0.2529 O   0  0  0  0  0  0  0  0  0  0  0  0
   -4.1737   -1.7722   -1.1459 H   0  0  0  0  0  0  0  0  0  0  0  0
    5.1352    0.3164    0.4471 F   0  0  0  0  0  0  0  0  0  0  0  0
  1  4  1  0
  1  3  1  0
  2  1  1  0
  4  6  1  0
  5  4  1  0
  7  4  1  0
  7 19  1  0
  7  9  1  0
  8  7  1  0
 10  1  1  0
 10 11  1  0
 10 13  1  0
 11 15  1  0
 12 10  1  0
 14 11  1  0
 16 17  1  0
 16 11  1  0
 16 24  1  0
 18 16  1  0
 19 21  1  0
 20 19  1  0
 22 19  1  0
 23 22  1  0
M  RAD  2  20   2  21   2
M  END
>  <program>  (1) 
Gaussian 16, Revision A.03

>  <basis>  (1) 
6-311+G(2d) (5D, 7F)

>  <File Format>  (1) 
g03

$$$$
