/home/yang/projects/t99_calc/v1/qchem_data/combined/log_fchk/pfocof.log
     RDKit          3D

 22 21  0  0  0  0  0  0  0  0999 V2000
    0.2399    0.4982    0.0947 C   0  0  0  0  0  0  0  0  0  0  0  0
    1.5445   -0.3239   -0.1475 C   0  0  0  0  0  0  0  0  0  0  0  0
    2.8353    0.3864    0.3625 C   0  0  0  0  0  0  0  0  0  0  0  0
    4.1048   -0.2208   -0.2803 C   0  0  0  0  0  0  0  0  0  0  0  0
    1.6937   -0.5251   -1.4671 F   0  0  0  0  0  0  0  0  0  0  0  0
    1.4428   -1.5098    0.4637 F   0  0  0  0  0  0  0  0  0  0  0  0
    0.1855    1.4826   -0.8098 F   0  0  0  0  0  0  0  0  0  0  0  0
    0.2912    1.0299    1.3224 F   0  0  0  0  0  0  0  0  0  0  0  0
    4.8322    0.3292   -1.0141 O   0  0  0  0  0  0  0  0  0  0  0  0
    2.7864    1.6805    0.0428 F   0  0  0  0  0  0  0  0  0  0  0  0
    2.9236    0.2623    1.6947 F   0  0  0  0  0  0  0  0  0  0  0  0
    4.2715   -1.4735    0.1293 F   0  0  0  0  0  0  0  0  0  0  0  0
   -1.0557   -0.3692   -0.0159 C   0  0  0  0  0  0  0  0  0  0  0  0
   -2.3464    0.4846   -0.2179 C   0  0  0  0  0  0  0  0  0  0  0  0
   -3.6672   -0.2878    0.0739 C   0  0  0  0  0  0  0  0  0  0  0  0
   -0.9362   -1.2016   -1.0585 F   0  0  0  0  0  0  0  0  0  0  0  0
   -1.1795   -1.0903    1.1053 F   0  0  0  0  0  0  0  0  0  0  0  0
   -2.3115    1.5487    0.5960 F   0  0  0  0  0  0  0  0  0  0  0  0
   -2.3910    0.9027   -1.4867 F   0  0  0  0  0  0  0  0  0  0  0  0
   -4.6895    0.4492   -0.3392 F   0  0  0  0  0  0  0  0  0  0  0  0
   -3.8042   -0.5148    1.3714 F   0  0  0  0  0  0  0  0  0  0  0  0
   -3.6815   -1.4453   -0.5760 F   0  0  0  0  0  0  0  0  0  0  0  0
  1  8  1  0
  2  1  1  0
  2  3  1  0
  2  6  1  0
  3 11  1  0
  4 12  1  0
  4  3  1  0
  5  2  1  0
  7  1  1  0
  9  4  2  0
 10  3  1  0
 13  1  1  0
 13 17  1  0
 14 13  1  0
 14 15  1  0
 14 18  1  0
 15 21  1  0
 16 13  1  0
 19 14  1  0
 20 15  1  0
 22 15  1  0
M  END
>  <program>  (1) 
Gaussian 16, Revision A.03

>  <basis>  (1) 
6-311+G(2d,2p) (5D, 7F)

>  <File Format>  (1) 
g03

$$$$
