Title Card Required
     RDKit          3D

 27 26  0  0  0  0  0  0  0  0999 V2000
   -0.6407    0.4555   -0.1015 C   0  0  0  0  0  0  0  0  0  0  0  0
   -0.7067    1.1299   -1.2559 F   0  0  0  0  0  0  0  0  0  0  0  0
   -0.5302    1.3266    0.9099 F   0  0  0  0  0  0  0  0  0  0  0  0
   -1.9589   -0.3638    0.0927 C   0  0  0  0  0  0  0  0  0  0  0  0
   -1.8921   -1.4763   -0.6510 F   0  0  0  0  0  0  0  0  0  0  0  0
   -2.0508   -0.7079    1.3829 F   0  0  0  0  0  0  0  0  0  0  0  0
   -3.2356    0.4329   -0.3267 C   0  0  0  0  0  0  0  0  0  0  0  0
   -3.3088    0.4349   -1.6620 F   0  0  0  0  0  0  0  0  0  0  0  0
   -3.1273    1.6980    0.1069 F   0  0  0  0  0  0  0  0  0  0  0  0
    0.6359   -0.4475   -0.1337 C   0  0  0  0  0  0  0  0  0  0  0  0
    1.9528    0.3536    0.1284 C   0  0  0  0  0  0  0  0  0  0  0  0
    0.7139   -1.0291   -1.3371 F   0  0  0  0  0  0  0  0  0  0  0  0
    0.5279   -1.3953    0.8057 F   0  0  0  0  0  0  0  0  0  0  0  0
    1.8987    1.5197   -0.5282 F   0  0  0  0  0  0  0  0  0  0  0  0
    2.0475    0.5977    1.4418 F   0  0  0  0  0  0  0  0  0  0  0  0
    3.2325   -0.4079   -0.3388 C   0  0  0  0  0  0  0  0  0  0  0  0
    4.5561    0.1521    0.2618 C   0  0  0  0  0  0  0  0  0  0  0  0
    4.6256    1.4668    0.0910 F   0  0  0  0  0  0  0  0  0  0  0  0
    4.6430   -0.1243    1.5543 F   0  0  0  0  0  0  0  0  0  0  0  0
    5.5793   -0.4160   -0.3632 F   0  0  0  0  0  0  0  0  0  0  0  0
    3.1430   -1.6974    0.0154 F   0  0  0  0  0  0  0  0  0  0  0  0
    3.3230   -0.3231   -1.6700 F   0  0  0  0  0  0  0  0  0  0  0  0
   -4.5635   -0.1506    0.2373 C   0  0  0  0  0  0  0  0  0  0  0  0
   -4.6187    0.0505    1.5702 F   0  0  0  0  0  0  0  0  0  0  0  0
   -4.5785   -1.4908    0.0566 F   0  0  0  0  0  0  0  0  0  0  0  0
   -5.5823    0.4509   -0.3921 O   0  0  0  0  0  0  0  0  0  0  0  0
   -6.4119    0.1735    0.0150 H   0  0  0  0  0  0  0  0  0  0  0  0
  1  2  1  0
  1  3  1  0
  1  4  1  0
  1 10  1  0
  4  5  1  0
  4  6  1  0
  4  7  1  0
  7  8  1  0
  7  9  1  0
  7 23  1  0
 10 11  1  0
 10 12  1  0
 10 13  1  0
 11 14  1  0
 11 15  1  0
 11 16  1  0
 16 17  1  0
 16 21  1  0
 16 22  1  0
 17 18  1  0
 17 19  1  0
 17 20  1  0
 23 24  1  0
 23 25  1  0
 23 26  1  0
 26 27  1  0
M  END
$$$$
