Title Card Required
     RDKit          3D

 18 17  0  0  0  0  0  0  0  0999 V2000
    1.2879    0.5141    0.1853 C   0  0  0  0  0  0  0  0  0  0  0  0
    1.2760    1.5621   -0.6501 F   0  0  0  0  0  0  0  0  0  0  0  0
    1.3170    0.9590    1.4461 F   0  0  0  0  0  0  0  0  0  0  0  0
   -0.0040   -0.3377   -0.0175 C   0  0  0  0  0  0  0  0  0  0  0  0
    0.1367   -1.0838   -1.1219 F   0  0  0  0  0  0  0  0  0  0  0  0
   -0.1324   -1.1512    1.0386 F   0  0  0  0  0  0  0  0  0  0  0  0
   -1.2921    0.5313   -0.1699 C   0  0  0  0  0  0  0  0  0  0  0  0
   -1.3056    1.0454   -1.4045 F   0  0  0  0  0  0  0  0  0  0  0  0
   -1.2547    1.5342    0.7199 F   0  0  0  0  0  0  0  0  0  0  0  0
    2.6097   -0.2696   -0.0689 C   0  0  0  0  0  0  0  0  0  0  0  0
    2.7682   -0.5246   -1.3590 F   0  0  0  0  0  0  0  0  0  0  0  0
    2.6125   -1.4134    0.6051 F   0  0  0  0  0  0  0  0  0  0  0  0
   -2.6185   -0.2521    0.0515 C   0  0  0  0  0  0  0  0  0  0  0  0
   -2.7382   -0.5834    1.3538 F   0  0  0  0  0  0  0  0  0  0  0  0
   -2.5721   -1.4182   -0.6319 F   0  0  0  0  0  0  0  0  0  0  0  0
   -3.6329    0.5249   -0.3524 O   0  0  0  0  0  0  0  0  0  0  0  0
   -4.4673    0.0953   -0.1291 H   0  0  0  0  0  0  0  0  0  0  0  0
    3.6295    0.4728    0.3445 F   0  0  0  0  0  0  0  0  0  0  0  0
  1  2  1  0
  1  3  1  0
  1  4  1  0
  1 10  1  0
  4  5  1  0
  4  6  1  0
  4  7  1  0
  7  8  1  0
  7  9  1  0
  7 13  1  0
 10 11  1  0
 10 12  1  0
 10 18  1  0
 13 14  1  0
 13 15  1  0
 13 16  1  0
 16 17  1  0
M  END
$$$$
