/home/yang/projects/t99_calc/v1/qchem_data/combined/log_fchk/pfproh.log
     RDKit          3D

 12 11  0  0  0  0  0  0  0  0999 V2000
   -1.3087   -0.2372    0.0000 C   0  0  0  0  0  0  0  0  0  0  0  0
   -2.3440    0.5949   -0.0001 F   0  0  0  0  0  0  0  0  0  0  0  0
   -1.3817   -1.0040   -1.0799 F   0  0  0  0  0  0  0  0  0  0  0  0
   -1.3818   -1.0038    1.0800 F   0  0  0  0  0  0  0  0  0  0  0  0
   -0.0008    0.6021   -0.0000 C   0  0  0  0  0  0  0  0  0  0  0  0
   -0.0198    1.3785   -1.0915 F   0  0  0  0  0  0  0  0  0  0  0  0
   -0.0198    1.3787    1.0913 F   0  0  0  0  0  0  0  0  0  0  0  0
    1.3520   -1.0236   -1.0791 F   0  0  0  0  0  0  0  0  0  0  0  0
    1.3520   -1.0235    1.0792 F   0  0  0  0  0  0  0  0  0  0  0  0
    1.3209   -0.2112    0.0000 C   0  0  0  0  0  0  0  0  0  0  0  0
    2.3431    0.6548   -0.0000 O   0  0  0  0  0  0  0  0  0  0  0  0
    3.1739    0.1645    0.0001 H   0  0  0  0  0  0  0  0  0  0  0  0
  1  4  1  0
  2  1  1  0
  3  1  1  0
  5  1  1  0
  5 10  1  0
  5  7  1  0
  6  5  1  0
  8 10  1  0
 10  9  1  0
 11 10  1  0
 11 12  1  0
M  END
>  <program>  (1) 
Gaussian 16, Revision A.03

>  <basis>  (1) 
6-311+G(2d) (5D, 7F)

>  <File Format>  (1) 
g03

$$$$
