Title Card Required
     RDKit          3D

 15 14  0  0  0  0  0  0  0  0999 V2000
    2.2000    0.0784    0.0743 C   0  0  0  0  0  0  0  0  0  0  0  0
    2.4093    1.0450   -0.8123 F   0  0  0  0  0  0  0  0  0  0  0  0
    2.3820    0.5596    1.2939 F   0  0  0  0  0  0  0  0  0  0  0  0
    0.7624   -0.5017   -0.0831 C   0  0  0  0  0  0  0  0  0  0  0  0
    0.7196   -1.1662   -1.2453 F   0  0  0  0  0  0  0  0  0  0  0  0
    0.5577   -1.3575    0.9210 F   0  0  0  0  0  0  0  0  0  0  0  0
   -0.3535    0.5844   -0.0959 C   0  0  0  0  0  0  0  0  0  0  0  0
   -0.3450    1.1947   -1.2836 F   0  0  0  0  0  0  0  0  0  0  0  0
   -0.1313    1.4834    0.8649 F   0  0  0  0  0  0  0  0  0  0  0  0
   -2.0887   -0.0499    0.1866 S   0  0  0  0  0  0  0  0  0  0  0  0
   -2.9553    0.9815   -0.2798 O   0  0  0  0  0  1  0  0  0  0  0  0
   -2.1458   -0.6041    1.4893 O   0  0  0  0  0  1  0  0  0  0  0  0
   -2.1223   -1.2554   -0.8454 O   0  0  0  0  0  0  0  0  0  0  0  0
   -2.4644   -0.9268   -1.6889 H   0  0  0  0  0  0  0  0  0  0  0  0
    3.0763   -0.8942   -0.1365 F   0  0  0  0  0  0  0  0  0  0  0  0
  1  2  1  0
  1  3  1  0
  1  4  1  0
  1 15  1  0
  4  5  1  0
  4  6  1  0
  4  7  1  0
  7  8  1  0
  7  9  1  0
  7 10  1  0
 10 11  1  0
 10 12  1  0
 10 13  1  0
 13 14  1  0
M  RAD  2  11   2  12   2
M  END
$$$$
