/home/yang/projects/t99_calc/v1/qchem_data/combined/log_fchk/pfpra.log
     RDKit          3D

 11 10  0  0  0  0  0  0  0  0999 V2000
    1.0806    0.2743   -0.2011 C   0  0  0  0  0  0  0  0  0  0  0  0
    1.1107    1.4971    0.3143 F   0  0  0  0  0  0  0  0  0  0  0  0
    1.0196    0.3707   -1.5269 F   0  0  0  0  0  0  0  0  0  0  0  0
   -0.1511   -0.5098    0.3210 C   0  0  0  0  0  0  0  0  0  0  0  0
   -0.1009   -0.5194    1.6646 F   0  0  0  0  0  0  0  0  0  0  0  0
   -0.0562   -1.7640   -0.1255 F   0  0  0  0  0  0  0  0  0  0  0  0
   -1.4964    0.0874   -0.1593 C   0  0  0  0  0  0  0  0  0  0  0  0
   -2.1528   -0.4094   -1.0185 O   0  0  0  0  0  0  0  0  0  0  0  0
   -1.7844    1.1989    0.5087 O   0  0  0  0  0  0  0  0  0  0  0  0
   -2.6204    1.5408    0.1704 H   0  0  0  0  0  0  0  0  0  0  0  0
    2.1956   -0.3586    0.1341 F   0  0  0  0  0  0  0  0  0  0  0  0
  1 11  1  0
  1  2  1  0
  1  4  1  0
  3  1  1  0
  4  5  1  0
  6  4  1  0
  7  4  1  0
  7  9  1  0
  8  7  2  0
 10  9  1  0
M  END
>  <program>  (1) 
Gaussian 16, Revision A.03

>  <basis>  (1) 
6-311+G(2d,2p) (5D, 7F)

>  <File Format>  (1) 
g03

$$$$
