/home/yang/projects/t99_calc/v1/qchem_data/combined/log_fchk/propane1H.log
     RDKit          3D

 11 10  0  0  0  0  0  0  0  0999 V2000
   -1.0339   -0.3719    0.0007 C   0  0  0  0  0  0  0  0  0  0  0  0
   -0.9672   -1.1386    1.0809 F   0  0  0  0  0  0  0  0  0  0  0  0
   -0.9688   -1.1395   -1.0794 F   0  0  0  0  0  0  0  0  0  0  0  0
    0.1132    0.6698   -0.0009 C   0  0  0  0  0  0  0  0  0  0  0  0
   -0.0283    1.4425    1.0906 F   0  0  0  0  0  0  0  0  0  0  0  0
   -0.0292    1.4404   -1.0934 F   0  0  0  0  0  0  0  0  0  0  0  0
    1.5525    0.1245   -0.0008 C   0  0  0  0  0  0  0  0  0  0  0  0
    1.7611   -0.6310   -1.0926 F   0  0  0  0  0  0  0  0  0  0  0  0
    1.7618   -0.6276    1.0938 F   0  0  0  0  0  0  0  0  0  0  0  0
    2.2468    0.9670   -0.0021 H   0  0  0  0  0  0  0  0  0  0  0  0
   -2.2003    0.2647    0.0010 F   0  0  0  0  0  0  0  0  0  0  0  0
  1 11  1  0
  1  2  1  0
  3  1  1  0
  4  7  1  0
  4  1  1  0
  4  5  1  0
  6  4  1  0
  7  9  1  0
  8  7  1  0
 10  7  1  0
M  END
>  <program>  (1) 
Gaussian 16, Revision A.03

>  <basis>  (1) 
6-311+G(2d,2p) (5D, 7F)

>  <File Format>  (1) 
g03

$$$$
