/home/yang/projects/t99_calc/v1/qchem_data/combined/log_fchk/tfal.log
     RDKit          3D

  7  6  0  0  0  0  0  0  0  0999 V2000
    0.5904    0.0161   -0.0002 C   0  0  0  0  0  0  0  0  0  0  0  0
   -0.9472    0.1561   -0.0002 C   0  0  0  0  0  0  0  0  0  0  0  0
   -1.5519    1.1589   -0.0000 O   0  0  0  0  0  0  0  0  0  0  0  0
    1.1548    1.2086   -0.0016 F   0  0  0  0  0  0  0  0  0  0  0  0
    0.9842   -0.6538   -1.0802 F   0  0  0  0  0  0  0  0  0  0  0  0
   -1.5054   -1.0489   -0.0002 F   0  0  0  0  0  0  0  0  0  0  0  0
    0.9838   -0.6509    1.0822 F   0  0  0  0  0  0  0  0  0  0  0  0
  1  2  1  0
  1  7  1  0
  2  6  1  0
  2  3  2  0
  4  1  1  0
  5  1  1  0
M  END
>  <program>  (1) 
Gaussian 16, Revision A.03

>  <basis>  (1) 
6-311+G(2d,2p) (5D, 7F)

>  <File Format>  (1) 
g03

$$$$
