/home/yang/projects/t99_calc/v1/qchem_data/combined/log_fchk/tfcof_oh.log
     RDKit          3D

  9  8  0  0  1  0  0  0  0  0999 V2000
    0.7696    0.0283    0.0041 C   0  0  0  0  0  0  0  0  0  0  0  0
    1.2015    1.2302   -0.3537 F   0  0  0  0  0  0  0  0  0  0  0  0
    1.2082   -0.2384    1.2283 F   0  0  0  0  0  0  0  0  0  0  0  0
   -1.2793    0.2378   -1.2708 O   0  0  0  0  0  1  0  0  0  0  0  0
    1.2689   -0.8734   -0.8374 F   0  0  0  0  0  0  0  0  0  0  0  0
   -1.1487   -1.2721    0.3578 F   0  0  0  0  0  0  0  0  0  0  0  0
   -0.7777   -0.0259   -0.0488 C   0  0  1  0  0  0  0  0  0  0  0  0
   -1.2805    0.9465    0.7671 O   0  0  0  0  0  0  0  0  0  0  0  0
   -2.2424    0.8956    0.7423 H   0  0  0  0  0  0  0  0  0  0  0  0
  1  3  1  0
  2  1  1  0
  5  1  1  0
  7  4  1  6
  7  1  1  0
  7  6  1  0
  7  8  1  0
  9  8  1  0
M  RAD  1   4   2
M  END
>  <program>  (1) 
Gaussian 16, Revision A.03

>  <basis>  (1) 
6-311+G(2d,2p) (5D, 7F)

>  <File Format>  (1) 
g03

$$$$
