/home/yang/projects/t99_calc/v1/qchem_data/combined/log_fchk/triflate_amide.log
     RDKit          3D

 10  9  0  0  0  0  0  0  0  0999 V2000
   -0.9999    0.0427    0.0001 C   0  0  0  0  0  0  0  0  0  0  0  0
    0.8418   -0.1919   -0.0002 S   0  0  0  0  0  0  0  0  0  0  0  0
    1.1567   -0.7836    1.2614 O   0  0  0  0  0  0  0  0  0  0  0  0
    1.1565   -0.7826   -1.2623 O   0  0  0  0  0  0  0  0  0  0  0  0
   -1.3733    0.7120    1.0808 F   0  0  0  0  0  0  0  0  0  0  0  0
   -1.3733    0.7149   -1.0789 F   0  0  0  0  0  0  0  0  0  0  0  0
    1.3364    1.3658    0.0008 N   0  0  0  0  0  0  0  0  0  0  0  0
    1.8127    1.6246    0.8510 H   0  0  0  0  0  0  0  0  0  0  0  0
    1.8085    1.6270   -0.8511 H   0  0  0  0  0  0  0  0  0  0  0  0
   -1.5812   -1.1457   -0.0015 F   0  0  0  0  0  0  0  0  0  0  0  0
  1  5  1  0
  2  1  1  0
  2  7  1  0
  2  3  2  0
  4  2  2  0
  6  1  1  0
  7  8  1  0
  9  7  1  0
 10  1  1  0
M  END
>  <program>  (1) 
Gaussian 16, Revision A.03

>  <basis>  (1) 
6-311+G(2d,2p) (5D, 7F)

>  <File Format>  (1) 
g03

$$$$
