Title Card Required
     RDKit          3D

 21 20  0  0  0  0  0  0  0  0999 V2000
   -2.4015   -0.3384    0.2731 C   0  0  0  0  0  0  0  0  0  0  0  0
   -2.3698   -0.7599    1.5604 F   0  0  0  0  0  0  0  0  0  0  0  0
   -2.3788   -1.4316   -0.5203 F   0  0  0  0  0  0  0  0  0  0  0  0
   -3.6282    0.4908    0.0519 C   0  0  0  0  0  0  0  0  0  0  0  0
   -1.0980    0.4686    0.0012 C   0  0  0  0  0  0  0  0  0  0  0  0
    0.2221   -0.3641    0.0257 C   0  0  0  0  0  0  0  0  0  0  0  0
    1.5020    0.5165    0.1787 C   0  0  0  0  0  0  0  0  0  0  0  0
    2.8248   -0.2123   -0.2013 C   0  0  0  0  0  0  0  0  0  0  0  0
   -1.0215    1.4446    0.9259 F   0  0  0  0  0  0  0  0  0  0  0  0
   -1.2003    1.0370   -1.2104 F   0  0  0  0  0  0  0  0  0  0  0  0
    0.3066   -1.0529   -1.1221 F   0  0  0  0  0  0  0  0  0  0  0  0
    0.1968   -1.2307    1.0451 F   0  0  0  0  0  0  0  0  0  0  0  0
    1.6073    0.9058    1.4543 F   0  0  0  0  0  0  0  0  0  0  0  0
    1.4046    1.6010   -0.6036 F   0  0  0  0  0  0  0  0  0  0  0  0
    2.8991   -0.4078   -1.5097 F   0  0  0  0  0  0  0  0  0  0  0  0
    2.9111   -1.3824    0.4195 F   0  0  0  0  0  0  0  0  0  0  0  0
   -4.4842    0.2638   -0.9266 C   0  0  0  0  0  0  0  0  0  0  0  0
   -4.3339   -0.5376   -1.6363 H   0  0  0  0  0  0  0  0  0  0  0  0
   -5.3662    0.8778   -1.0398 H   0  0  0  0  0  0  0  0  0  0  0  0
   -3.7626    1.2925    0.7654 H   0  0  0  0  0  0  0  0  0  0  0  0
    3.8494    0.5455    0.1713 F   0  0  0  0  0  0  0  0  0  0  0  0
  1  2  1  0
  1  3  1  0
  1  4  1  0
  1  5  1  0
  4 17  2  0
  4 20  1  0
  5  6  1  0
  5  9  1  0
  5 10  1  0
  6  7  1  0
  6 11  1  0
  6 12  1  0
  7  8  1  0
  7 13  1  0
  7 14  1  0
  8 15  1  0
  8 16  1  0
  8 21  1  0
 17 18  1  0
 17 19  1  0
M  END
$$$$
/home/yang/projects/t99_calc/v1/qchem_data/combined/log_fchk/1_octane.log
     RDKit          3D

 26 25  0  0  0  0  0  0  0  0999 V2000
    0.8790    0.4419    0.1807 C   0  0  0  0  0  0  0  0  0  0  0  0
    0.9499    0.8611    1.4503 F   0  0  0  0  0  0  0  0  0  0  0  0
    0.7586    1.5023   -0.6274 F   0  0  0  0  0  0  0  0  0  0  0  0
    2.2013   -0.3075   -0.1758 C   0  0  0  0  0  0  0  0  0  0  0  0
    2.1500   -1.5493    0.3225 F   0  0  0  0  0  0  0  0  0  0  0  0
    2.3073   -0.3806   -1.5134 F   0  0  0  0  0  0  0  0  0  0  0  0
    3.4851    0.3941    0.3612 C   0  0  0  0  0  0  0  0  0  0  0  0
    3.6095    0.1470    1.6759 F   0  0  0  0  0  0  0  0  0  0  0  0
    3.3720    1.7117    0.1761 F   0  0  0  0  0  0  0  0  0  0  0  0
    4.7587   -0.0947   -0.3771 C   0  0  0  0  0  0  0  0  0  0  0  0
    5.4046    0.6071   -1.0876 O   0  0  0  0  0  0  0  0  0  0  0  0
    5.0031   -1.3689   -0.0919 O   0  0  0  0  0  0  0  0  0  0  0  0
    5.7965   -1.6355   -0.5713 H   0  0  0  0  0  0  0  0  0  0  0  0
   -0.3913   -0.4572    0.0284 C   0  0  0  0  0  0  0  0  0  0  0  0
   -1.7148    0.3704   -0.0586 C   0  0  0  0  0  0  0  0  0  0  0  0
   -0.4604   -1.2782    1.0835 F   0  0  0  0  0  0  0  0  0  0  0  0
   -0.2775   -1.1870   -1.0889 F   0  0  0  0  0  0  0  0  0  0  0  0
   -1.6660    1.3738    0.8270 F   0  0  0  0  0  0  0  0  0  0  0  0
   -1.8154    0.8822   -1.2919 F   0  0  0  0  0  0  0  0  0  0  0  0
   -2.9875   -0.4818    0.2419 C   0  0  0  0  0  0  0  0  0  0  0  0
   -4.3171    0.1793   -0.2288 C   0  0  0  0  0  0  0  0  0  0  0  0
   -4.3949    1.4306    0.2077 F   0  0  0  0  0  0  0  0  0  0  0  0
   -4.4065    0.1724   -1.5503 F   0  0  0  0  0  0  0  0  0  0  0  0
   -5.3340   -0.5125    0.2687 F   0  0  0  0  0  0  0  0  0  0  0  0
   -2.8884   -1.6695   -0.3713 F   0  0  0  0  0  0  0  0  0  0  0  0
   -3.0752   -0.6748    1.5619 F   0  0  0  0  0  0  0  0  0  0  0  0
  1  2  1  0
  3  1  1  0
  4  1  1  0
  4  5  1  0
  4  7  1  0
  6  4  1  0
  7  8  1  0
  9  7  1  0
 10 12  1  0
 10  7  1  0
 11 10  2  0
 13 12  1  0
 14  1  1  0
 14 16  1  0
 15 14  1  0
 15 20  1  0
 15 18  1  0
 17 14  1  0
 19 15  1  0
 20 26  1  0
 21 22  1  0
 21 20  1  0
 21 24  1  0
 23 21  1  0
 25 20  1  0
M  END
>  <program>  (2) 
Gaussian 16, Revision A.03

>  <basis>  (2) 
6-311+G(2d,2p) (5D, 7F)

>  <File Format>  (2) 
g03

$$$$
Title Card Required
     RDKit          3D

 21 20  0  0  1  0  0  0  0  0999 V2000
   -3.2459    0.0522   -0.0466 C   0  0  0  0  0  0  0  0  0  0  0  0
   -4.1380   -0.8378   -0.4608 F   0  0  0  0  0  0  0  0  0  0  0  0
   -3.5563    0.4281    1.1853 F   0  0  0  0  0  0  0  0  0  0  0  0
   -3.2923    1.1096   -0.8477 F   0  0  0  0  0  0  0  0  0  0  0  0
   -1.8371   -0.6017   -0.0851 C   0  0  0  0  0  0  0  0  0  0  0  0
   -1.8465   -1.6497    0.7455 F   0  0  0  0  0  0  0  0  0  0  0  0
   -1.6152   -1.0281   -1.3346 F   0  0  0  0  0  0  0  0  0  0  0  0
   -0.8649    0.8195    1.5337 F   0  0  0  0  0  0  0  0  0  0  0  0
   -0.5807    1.3549   -0.5431 F   0  0  0  0  0  0  0  0  0  0  0  0
   -0.6588    0.3294    0.3171 C   0  0  0  0  0  0  0  0  0  0  0  0
    0.4830   -0.4340    0.2982 O   0  0  0  0  0  0  0  0  0  0  0  0
    1.6428    0.0268   -0.2735 C   0  0  1  0  0  0  0  0  0  0  0  0
    2.0383    1.4815    0.1210 C   0  0  0  0  0  0  0  0  0  0  0  0
    1.9992    1.8310    1.2551 O   0  0  0  0  0  0  0  0  0  0  0  0
    2.4408    2.2482   -0.8821 O   0  0  0  0  0  0  0  0  0  0  0  0
    2.3590    1.7839   -1.7219 H   0  0  0  0  0  0  0  0  0  0  0  0
    2.7458   -0.9724    0.1632 C   0  0  0  0  0  0  0  0  0  0  0  0
    1.5672   -0.0649   -1.6415 F   0  0  0  0  0  0  0  0  0  0  0  0
    2.8544   -1.0196    1.4776 F   0  0  0  0  0  0  0  0  0  0  0  0
    2.4679   -2.1844   -0.2950 F   0  0  0  0  0  0  0  0  0  0  0  0
    3.9094   -0.5765   -0.3556 F   0  0  0  0  0  0  0  0  0  0  0  0
  1  2  1  0
  1  3  1  0
  1  4  1  0
  1  5  1  0
  5  6  1  0
  5  7  1  0
  5 10  1  0
  8 10  1  0
  9 10  1  0
 10 11  1  0
 11 12  1  0
 12 13  1  0
 12 17  1  0
 12 18  1  6
 13 14  2  0
 13 15  1  0
 15 16  1  0
 17 19  1  0
 17 20  1  0
 17 21  1  0
M  END
$$$$
Title Card Required
     RDKit          3D

 17 16  0  0  0  0  0  0  0  0999 V2000
    0.7702   -0.4771    0.1489 C   0  0  0  0  0  0  0  0  0  0  0  0
    0.8477   -0.8530    1.4488 F   0  0  0  0  0  0  0  0  0  0  0  0
    0.8744   -1.6014   -0.5999 F   0  0  0  0  0  0  0  0  0  0  0  0
   -0.5283    0.2428   -0.1282 C   0  0  0  0  0  0  0  0  0  0  0  0
   -1.7346   -0.6402    0.1861 C   0  0  0  0  0  0  0  0  0  0  0  0
   -3.0551    0.0417   -0.0643 C   0  0  0  0  0  0  0  0  0  0  0  0
   -4.0082   -0.4720   -0.5785 O   0  0  0  0  0  0  0  0  0  0  0  0
   -3.0703    1.3114    0.3845 O   0  0  0  0  0  0  0  0  0  0  0  0
   -3.9513    1.6616    0.2110 H   0  0  0  0  0  0  0  0  0  0  0  0
    2.0254    0.3754   -0.1459 C   0  0  0  0  0  0  0  0  0  0  0  0
    2.0189    1.4778    0.6044 F   0  0  0  0  0  0  0  0  0  0  0  0
    2.0401    0.7425   -1.4281 F   0  0  0  0  0  0  0  0  0  0  0  0
    3.1340   -0.3040    0.1114 F   0  0  0  0  0  0  0  0  0  0  0  0
   -1.7266   -1.5526   -0.4035 H   0  0  0  0  0  0  0  0  0  0  0  0
   -1.7187   -0.9255    1.2400 H   0  0  0  0  0  0  0  0  0  0  0  0
   -0.5292    0.5385   -1.1770 H   0  0  0  0  0  0  0  0  0  0  0  0
   -0.5477    1.1495    0.4731 H   0  0  0  0  0  0  0  0  0  0  0  0
  1  2  1  0
  1  3  1  0
  1  4  1  0
  1 10  1  0
  4  5  1  0
  4 16  1  0
  4 17  1  0
  5  6  1  0
  5 14  1  0
  5 15  1  0
  6  7  2  0
  6  8  1  0
  8  9  1  0
 10 11  1  0
 10 12  1  0
 10 13  1  0
M  END
$$$$
Title Card Required
     RDKit          3D

  9  9  0  0  0  0  0  0  0  0999 V2000
   -0.1316   -0.8654   -0.0001 C   0  0  0  0  0  0  0  0  0  0  0  0
   -0.2421   -1.5912   -1.1011 F   0  0  0  0  0  0  0  0  0  0  0  0
   -0.2422   -1.5912    1.1010 F   0  0  0  0  0  0  0  0  0  0  0  0
   -0.6837    0.5470   -0.0001 C   0  0  0  0  0  0  0  0  0  0  0  0
   -1.2575    1.0049    1.1011 F   0  0  0  0  0  0  0  0  0  0  0  0
   -1.2573    1.0054   -1.1011 F   0  0  0  0  0  0  0  0  0  0  0  0
    0.8155    0.3189    0.0001 C   0  0  0  0  0  0  0  0  0  0  0  0
    1.4996    0.5858   -1.1010 F   0  0  0  0  0  0  0  0  0  0  0  0
    1.4994    0.5861    1.1012 F   0  0  0  0  0  0  0  0  0  0  0  0
  1  2  1  0
  1  3  1  0
  1  4  1  0
  1  7  1  0
  4  5  1  0
  4  6  1  0
  4  7  1  0
  7  8  1  0
  7  9  1  0
M  END
$$$$
Title Card Required
     RDKit          3D

 20 19  0  0  0  0  0  0  0  0999 V2000
    2.3009    0.1666    0.0975 C   0  0  0  0  0  0  0  0  0  0  0  0
    0.9160   -0.5118   -0.1204 C   0  0  0  0  0  0  0  0  0  0  0  0
   -0.2899    0.4752   -0.1030 C   0  0  0  0  0  0  0  0  0  0  0  0
   -1.6888   -0.1798    0.0652 C   0  0  0  0  0  0  0  0  0  0  0  0
   -2.8245    0.7893   -0.1760 C   0  0  0  0  0  0  0  0  0  0  0  0
   -4.1870    0.1448    0.0544 C   0  0  0  0  0  0  0  0  0  0  0  0
    2.4559    1.1982   -0.7248 F   0  0  0  0  0  0  0  0  0  0  0  0
    0.9520   -1.1235   -1.3110 F   0  0  0  0  0  0  0  0  0  0  0  0
   -0.2709    1.1567   -1.2638 F   0  0  0  0  0  0  0  0  0  0  0  0
   -1.7595   -1.2276   -0.7944 F   0  0  0  0  0  0  0  0  0  0  0  0
   -1.7545   -0.6861    1.3198 F   0  0  0  0  0  0  0  0  0  0  0  0
   -0.1214    1.3566    0.9012 F   0  0  0  0  0  0  0  0  0  0  0  0
    0.7732   -1.4350    0.8393 F   0  0  0  0  0  0  0  0  0  0  0  0
    2.4319    0.5866    1.3479 F   0  0  0  0  0  0  0  0  0  0  0  0
   -4.3401   -0.7011   -0.6135 H   0  0  0  0  0  0  0  0  0  0  0  0
   -4.9718    0.8740   -0.1380 H   0  0  0  0  0  0  0  0  0  0  0  0
   -4.2914   -0.2034    1.0802 H   0  0  0  0  0  0  0  0  0  0  0  0
   -2.6801    1.6393    0.4910 H   0  0  0  0  0  0  0  0  0  0  0  0
   -2.7371    1.1544   -1.1978 H   0  0  0  0  0  0  0  0  0  0  0  0
    3.2555   -0.7224   -0.1508 F   0  0  0  0  0  0  0  0  0  0  0  0
  1  2  1  0
  1  7  1  0
  1 14  1  0
  1 20  1  0
  2  3  1  0
  2  8  1  0
  2 13  1  0
  3  4  1  0
  3  9  1  0
  3 12  1  0
  4  5  1  0
  4 10  1  0
  4 11  1  0
  5  6  1  0
  5 18  1  0
  5 19  1  0
  6 15  1  0
  6 16  1  0
  6 17  1  0
M  END
$$$$
/home/yang/projects/t99_calc/v1/qchem_data/combined/log_fchk/pfocof.log
     RDKit          3D

 22 21  0  0  0  0  0  0  0  0999 V2000
    0.2399    0.4982    0.0947 C   0  0  0  0  0  0  0  0  0  0  0  0
    1.5445   -0.3239   -0.1475 C   0  0  0  0  0  0  0  0  0  0  0  0
    2.8353    0.3864    0.3625 C   0  0  0  0  0  0  0  0  0  0  0  0
    4.1048   -0.2208   -0.2803 C   0  0  0  0  0  0  0  0  0  0  0  0
    1.6937   -0.5251   -1.4671 F   0  0  0  0  0  0  0  0  0  0  0  0
    1.4428   -1.5098    0.4637 F   0  0  0  0  0  0  0  0  0  0  0  0
    0.1855    1.4826   -0.8098 F   0  0  0  0  0  0  0  0  0  0  0  0
    0.2912    1.0299    1.3224 F   0  0  0  0  0  0  0  0  0  0  0  0
    4.8322    0.3292   -1.0141 O   0  0  0  0  0  0  0  0  0  0  0  0
    2.7864    1.6805    0.0428 F   0  0  0  0  0  0  0  0  0  0  0  0
    2.9236    0.2623    1.6947 F   0  0  0  0  0  0  0  0  0  0  0  0
    4.2715   -1.4735    0.1293 F   0  0  0  0  0  0  0  0  0  0  0  0
   -1.0557   -0.3692   -0.0159 C   0  0  0  0  0  0  0  0  0  0  0  0
   -2.3464    0.4846   -0.2179 C   0  0  0  0  0  0  0  0  0  0  0  0
   -3.6672   -0.2878    0.0739 C   0  0  0  0  0  0  0  0  0  0  0  0
   -0.9362   -1.2016   -1.0585 F   0  0  0  0  0  0  0  0  0  0  0  0
   -1.1795   -1.0903    1.1053 F   0  0  0  0  0  0  0  0  0  0  0  0
   -2.3115    1.5487    0.5960 F   0  0  0  0  0  0  0  0  0  0  0  0
   -2.3910    0.9027   -1.4867 F   0  0  0  0  0  0  0  0  0  0  0  0
   -4.6895    0.4492   -0.3392 F   0  0  0  0  0  0  0  0  0  0  0  0
   -3.8042   -0.5148    1.3714 F   0  0  0  0  0  0  0  0  0  0  0  0
   -3.6815   -1.4453   -0.5760 F   0  0  0  0  0  0  0  0  0  0  0  0
  1  8  1  0
  2  1  1  0
  2  3  1  0
  2  6  1  0
  3 11  1  0
  4 12  1  0
  4  3  1  0
  5  2  1  0
  7  1  1  0
  9  4  2  0
 10  3  1  0
 13  1  1  0
 13 17  1  0
 14 13  1  0
 14 15  1  0
 14 18  1  0
 15 21  1  0
 16 13  1  0
 19 14  1  0
 20 15  1  0
 22 15  1  0
M  END
>  <program>  (7) 
Gaussian 16, Revision A.03

>  <basis>  (7) 
6-311+G(2d,2p) (5D, 7F)

>  <File Format>  (7) 
g03

$$$$
/home/yang/projects/t99_calc/v1/qchem_data/combined/log_fchk/butane.log
     RDKit          3D

 14 13  0  0  0  0  0  0  0  0999 V2000
    1.9960   -0.1178    0.0745 C   0  0  0  0  0  0  0  0  0  0  0  0
    2.9088    0.8216   -0.1346 F   0  0  0  0  0  0  0  0  0  0  0  0
    2.1532   -0.5983    1.2989 F   0  0  0  0  0  0  0  0  0  0  0  0
    2.1772   -1.0957   -0.8041 F   0  0  0  0  0  0  0  0  0  0  0  0
    0.5836    0.5152   -0.0936 C   0  0  0  0  0  0  0  0  0  0  0  0
    0.4108    1.3882    0.9086 F   0  0  0  0  0  0  0  0  0  0  0  0
    0.5672    1.1769   -1.2560 F   0  0  0  0  0  0  0  0  0  0  0  0
   -0.5836   -0.5152   -0.0936 C   0  0  0  0  0  0  0  0  0  0  0  0
   -0.4108   -1.3883    0.9086 F   0  0  0  0  0  0  0  0  0  0  0  0
   -0.5672   -1.1769   -1.2560 F   0  0  0  0  0  0  0  0  0  0  0  0
   -1.9960    0.1178    0.0745 C   0  0  0  0  0  0  0  0  0  0  0  0
   -2.9088   -0.8216   -0.1347 F   0  0  0  0  0  0  0  0  0  0  0  0
   -2.1772    1.0958   -0.8041 F   0  0  0  0  0  0  0  0  0  0  0  0
   -2.1532    0.5982    1.2989 F   0  0  0  0  0  0  0  0  0  0  0  0
  1  3  1  0
  2  1  1  0
  4  1  1  0
  5  1  1  0
  5  6  1  0
  7  5  1  0
  8  5  1  0
  8 11  1  0
  8  9  1  0
 10  8  1  0
 11 14  1  0
 12 11  1  0
 13 11  1  0
M  END
>  <program>  (8) 
Gaussian 16, Revision A.03

>  <basis>  (8) 
6-311+G(2d) (5D, 7F)

>  <File Format>  (8) 
g03

$$$$
/home/yang/projects/t99_calc/v1/qchem_data/combined/log_fchk/cho2h.log
     RDKit          3D

  5  4  0  0  0  0  0  0  0  0999 V2000
   -0.1338    0.3985   -0.0003 C   0  0  0  0  0  0  0  0  0  0  0  0
    1.0469   -1.0528   -0.0001 H   0  0  0  0  0  0  0  0  0  0  0  0
    1.1109   -0.0899    0.0001 O   0  0  0  0  0  0  0  0  0  0  0  0
   -1.1279   -0.2640    0.0001 O   0  0  0  0  0  0  0  0  0  0  0  0
   -0.1079    1.4935    0.0005 H   0  0  0  0  0  0  0  0  0  0  0  0
  1  3  1  0
  1  4  2  0
  1  5  1  0
  2  3  1  0
M  END
>  <program>  (9) 
Gaussian 16, Revision A.03

>  <basis>  (9) 
6-311+G(2d,2p) (5D, 7F)

>  <File Format>  (9) 
g03

$$$$
Title Card Required
     RDKit          3D

 15 14  0  0  0  0  0  0  0  0999 V2000
    2.1219   -0.1919   -0.0000 C   0  0  0  0  0  0  0  0  0  0  0  0
    3.1275    0.6742    0.0001 F   0  0  0  0  0  0  0  0  0  0  0  0
    2.2177   -0.9558    1.0800 F   0  0  0  0  0  0  0  0  0  0  0  0
    2.2177   -0.9556   -1.0801 F   0  0  0  0  0  0  0  0  0  0  0  0
    0.7857    0.6027    0.0000 C   0  0  0  0  0  0  0  0  0  0  0  0
    0.7728    1.3761    1.0919 F   0  0  0  0  0  0  0  0  0  0  0  0
    0.7729    1.3762   -1.0917 F   0  0  0  0  0  0  0  0  0  0  0  0
   -0.5102   -1.0514    1.0830 F   0  0  0  0  0  0  0  0  0  0  0  0
   -0.5102   -1.0513   -1.0832 F   0  0  0  0  0  0  0  0  0  0  0  0
   -2.8565    0.2237    0.0000 C   0  0  0  0  0  0  0  0  0  0  0  0
   -3.7257    1.0297   -0.0000 O   0  0  0  0  0  0  0  0  0  0  0  0
   -2.9922   -1.0966    0.0001 O   0  0  0  0  0  0  0  0  0  0  0  0
   -3.9397   -1.2813    0.0001 H   0  0  0  0  0  0  0  0  0  0  0  0
   -0.5029   -0.2688   -0.0000 C   0  0  0  0  0  0  0  0  0  0  0  0
   -1.5498    0.6139   -0.0000 O   0  0  0  0  0  0  0  0  0  0  0  0
  1  2  1  0
  1  3  1  0
  1  4  1  0
  1  5  1  0
  5  6  1  0
  5  7  1  0
  5 14  1  0
  8 14  1  0
  9 14  1  0
 10 11  2  0
 10 12  1  0
 10 15  1  0
 12 13  1  0
 14 15  1  0
M  END
$$$$
Title Card Required
     RDKit          3D

 24 23  0  0  0  0  0  0  0  0999 V2000
    0.0027   -0.5020    0.0137 C   0  0  0  0  0  0  0  0  0  0  0  0
    0.0460   -1.3179   -1.0468 F   0  0  0  0  0  0  0  0  0  0  0  0
   -0.0488   -1.2384    1.1311 F   0  0  0  0  0  0  0  0  0  0  0  0
    1.3040    0.3650    0.0515 C   0  0  0  0  0  0  0  0  0  0  0  0
    1.1812    1.3703   -0.8258 F   0  0  0  0  0  0  0  0  0  0  0  0
    1.4299    0.8749    1.2828 F   0  0  0  0  0  0  0  0  0  0  0  0
    2.5873   -0.4493   -0.3092 C   0  0  0  0  0  0  0  0  0  0  0  0
    2.6138   -0.6249   -1.6347 F   0  0  0  0  0  0  0  0  0  0  0  0
    2.5308   -1.6485    0.2895 F   0  0  0  0  0  0  0  0  0  0  0  0
   -1.2981    0.3596   -0.0856 C   0  0  0  0  0  0  0  0  0  0  0  0
   -2.5833   -0.4252    0.3252 C   0  0  0  0  0  0  0  0  0  0  0  0
   -1.4329    0.7816   -1.3495 F   0  0  0  0  0  0  0  0  0  0  0  0
   -1.1861    1.4243    0.7191 F   0  0  0  0  0  0  0  0  0  0  0  0
   -2.5463   -1.6575   -0.2004 F   0  0  0  0  0  0  0  0  0  0  0  0
   -2.6252   -0.5173    1.6584 F   0  0  0  0  0  0  0  0  0  0  0  0
   -3.9093    0.2441   -0.1438 C   0  0  0  0  0  0  0  0  0  0  0  0
   -3.9316    1.5261    0.2007 F   0  0  0  0  0  0  0  0  0  0  0  0
   -4.0513    0.1435   -1.4568 F   0  0  0  0  0  0  0  0  0  0  0  0
    3.9169    0.2355    0.1220 C   0  0  0  0  0  0  0  0  0  0  0  0
    4.0250    0.2127    1.4665 F   0  0  0  0  0  0  0  0  0  0  0  0
    3.8864    1.5402   -0.2326 F   0  0  0  0  0  0  0  0  0  0  0  0
    4.9299   -0.4186   -0.4627 O   0  0  0  0  0  0  0  0  0  0  0  0
    5.7649   -0.0712   -0.1268 H   0  0  0  0  0  0  0  0  0  0  0  0
   -4.9270   -0.3744    0.4414 F   0  0  0  0  0  0  0  0  0  0  0  0
  1  2  1  0
  1  3  1  0
  1  4  1  0
  1 10  1  0
  4  5  1  0
  4  6  1  0
  4  7  1  0
  7  8  1  0
  7  9  1  0
  7 19  1  0
 10 11  1  0
 10 12  1  0
 10 13  1  0
 11 14  1  0
 11 15  1  0
 11 16  1  0
 16 17  1  0
 16 18  1  0
 16 24  1  0
 19 20  1  0
 19 21  1  0
 19 22  1  0
 22 23  1  0
M  END
$$$$
/home/yang/projects/t99_calc/v1/qchem_data/combined/log_fchk/chfo2.log
     RDKit          3D

  5  4  0  0  0  0  0  0  0  0999 V2000
   -0.1472    0.0808    0.0000 C   0  0  0  0  0  0  0  0  0  0  0  0
    0.1980   -1.2236   -0.0000 F   0  0  0  0  0  0  0  0  0  0  0  0
    0.9355    0.8363   -0.0000 O   0  0  0  0  0  0  0  0  0  0  0  0
    1.7233    0.2808   -0.0000 H   0  0  0  0  0  0  0  0  0  0  0  0
   -1.2632    0.4445   -0.0000 O   0  0  0  0  0  0  0  0  0  0  0  0
  2  1  1  0
  3  4  1  0
  3  1  1  0
  5  1  2  0
M  END
>  <program>  (12) 
Gaussian 16, Revision A.03

>  <basis>  (12) 
6-311+G(2d) (5D, 7F)

>  <File Format>  (12) 
g03

$$$$
Title Card Required
     RDKit          3D

 24 23  0  0  0  0  0  0  0  0999 V2000
    0.8758   -0.9540   -0.5573 C   0  0  0  0  0  0  0  0  0  0  0  0
    0.8143   -0.5452   -1.8341 F   0  0  0  0  0  0  0  0  0  0  0  0
    0.6288   -2.2706   -0.5151 F   0  0  0  0  0  0  0  0  0  0  0  0
    2.2631   -0.7142    0.0183 C   0  0  0  0  0  0  0  0  0  0  0  0
    2.6045   -1.6147    0.9239 F   0  0  0  0  0  0  0  0  0  0  0  0
    3.0682    0.2869   -0.3088 C   0  0  0  0  0  0  0  0  0  0  0  0
    2.6954    1.2005   -1.1920 F   0  0  0  0  0  0  0  0  0  0  0  0
    4.4539    0.5702    0.2248 C   0  0  0  0  0  0  0  0  0  0  0  0
    5.3246    0.6122   -0.7855 F   0  0  0  0  0  0  0  0  0  0  0  0
    4.8599   -0.3446    1.0926 F   0  0  0  0  0  0  0  0  0  0  0  0
    4.4710    1.7618    0.8255 F   0  0  0  0  0  0  0  0  0  0  0  0
   -0.2230   -0.2064    0.2588 C   0  0  0  0  0  0  0  0  0  0  0  0
   -0.2737   -0.7666    1.4769 F   0  0  0  0  0  0  0  0  0  0  0  0
    0.1561    1.0730    0.3890 F   0  0  0  0  0  0  0  0  0  0  0  0
   -1.6426   -0.2301   -0.3908 C   0  0  0  0  0  0  0  0  0  0  0  0
   -1.8895   -1.4503   -0.8822 F   0  0  0  0  0  0  0  0  0  0  0  0
   -1.6562    0.6525   -1.3983 F   0  0  0  0  0  0  0  0  0  0  0  0
   -2.7804    0.1276    0.6158 C   0  0  0  0  0  0  0  0  0  0  0  0
   -3.0054   -0.9302    1.4021 F   0  0  0  0  0  0  0  0  0  0  0  0
   -2.4003    1.1658    1.3735 F   0  0  0  0  0  0  0  0  0  0  0  0
   -4.1294    0.5109   -0.0619 C   0  0  0  0  0  0  0  0  0  0  0  0
   -4.4795   -0.4067   -0.9548 F   0  0  0  0  0  0  0  0  0  0  0  0
   -4.0386    1.6889   -0.6603 F   0  0  0  0  0  0  0  0  0  0  0  0
   -5.0683    0.5803    0.8727 F   0  0  0  0  0  0  0  0  0  0  0  0
  1  2  1  0
  1  3  1  0
  1  4  1  0
  1 12  1  0
  4  5  1  0
  4  6  2  0
  6  7  1  0
  6  8  1  0
  8  9  1  0
  8 10  1  0
  8 11  1  0
 12 13  1  0
 12 14  1  0
 12 15  1  0
 15 16  1  0
 15 17  1  0
 15 18  1  0
 18 19  1  0
 18 20  1  0
 18 21  1  0
 21 22  1  0
 21 23  1  0
 21 24  1  0
M  END
$$$$
/home/yang/projects/t99_calc/v1/qchem_data/combined/log_fchk/pfprcof.log
     RDKit          3D

 10  9  0  0  0  0  0  0  0  0999 V2000
   -1.0803   -0.2556   -0.1993 C   0  0  0  0  0  0  0  0  0  0  0  0
    0.1686    0.5117    0.3106 C   0  0  0  0  0  0  0  0  0  0  0  0
    1.4946   -0.1141   -0.1750 C   0  0  0  0  0  0  0  0  0  0  0  0
   -1.0365   -0.3390   -1.5255 F   0  0  0  0  0  0  0  0  0  0  0  0
   -1.1097   -1.4813    0.3069 F   0  0  0  0  0  0  0  0  0  0  0  0
    2.1933    0.3246   -1.0060 O   0  0  0  0  0  0  0  0  0  0  0  0
    0.1002    1.7634   -0.1430 F   0  0  0  0  0  0  0  0  0  0  0  0
    0.1409    0.5241    1.6521 F   0  0  0  0  0  0  0  0  0  0  0  0
    1.7458   -1.2382    0.4857 F   0  0  0  0  0  0  0  0  0  0  0  0
   -2.1790    0.3878    0.1605 F   0  0  0  0  0  0  0  0  0  0  0  0
  1 10  1  0
  1  5  1  0
  1  2  1  0
  2  8  1  0
  3  2  1  0
  3  9  1  0
  4  1  1  0
  6  3  2  0
  7  2  1  0
M  END
>  <program>  (14) 
Gaussian 16, Revision A.03

>  <basis>  (14) 
6-311+G(2d,2p) (5D, 7F)

>  <File Format>  (14) 
g03

$$$$
/home/yang/projects/t99_calc/v1/qchem_data/combined/log_fchk/pfpal.log
     RDKit          3D

 10  9  0  0  0  0  0  0  0  0999 V2000
   -1.0802   -0.2553   -0.1999 C   0  0  0  0  0  0  0  0  0  0  0  0
    0.1685    0.5109    0.3112 C   0  0  0  0  0  0  0  0  0  0  0  0
    1.4946   -0.1136   -0.1754 C   0  0  0  0  0  0  0  0  0  0  0  0
   -1.0385   -0.3324   -1.5266 F   0  0  0  0  0  0  0  0  0  0  0  0
   -1.1077   -1.4831    0.3013 F   0  0  0  0  0  0  0  0  0  0  0  0
    2.1932    0.3269   -1.0056 O   0  0  0  0  0  0  0  0  0  0  0  0
    0.0999    1.7637   -0.1391 F   0  0  0  0  0  0  0  0  0  0  0  0
    0.1412    0.5196    1.6531 F   0  0  0  0  0  0  0  0  0  0  0  0
    1.7459   -1.2387    0.4833 F   0  0  0  0  0  0  0  0  0  0  0  0
   -2.1788    0.3857    0.1647 F   0  0  0  0  0  0  0  0  0  0  0  0
  1 10  1  0
  1  5  1  0
  1  2  1  0
  2  8  1  0
  3  2  1  0
  3  9  1  0
  4  1  1  0
  6  3  2  0
  7  2  1  0
M  END
>  <program>  (15) 
Gaussian 16, Revision A.03

>  <basis>  (15) 
6-311+G(2d,2p) (5D, 7F)

>  <File Format>  (15) 
g03

$$$$
Title Card Required
     RDKit          3D

 27 26  0  0  0  0  0  0  0  0999 V2000
    1.3571   -0.4274   -0.1628 C   0  0  0  0  0  0  0  0  0  0  0  0
    1.4277   -0.8789   -1.4270 F   0  0  0  0  0  0  0  0  0  0  0  0
    1.2426   -1.4863    0.6597 F   0  0  0  0  0  0  0  0  0  0  0  0
    2.6890    0.2995    0.1772 C   0  0  0  0  0  0  0  0  0  0  0  0
    2.6776    1.5005   -0.4563 F   0  0  0  0  0  0  0  0  0  0  0  0
    2.6925    0.5509    1.5088 F   0  0  0  0  0  0  0  0  0  0  0  0
    3.9051   -0.5034   -0.2150 C   0  0  0  0  0  0  0  0  0  0  0  0
    0.0728    0.4531   -0.0425 C   0  0  0  0  0  0  0  0  0  0  0  0
   -1.2412   -0.3899    0.0452 C   0  0  0  0  0  0  0  0  0  0  0  0
    0.0036    1.2478   -1.1199 F   0  0  0  0  0  0  0  0  0  0  0  0
    0.1494    1.2150    1.0546 F   0  0  0  0  0  0  0  0  0  0  0  0
   -1.1724   -1.4136   -0.8163 F   0  0  0  0  0  0  0  0  0  0  0  0
   -1.3518   -0.8768    1.2887 F   0  0  0  0  0  0  0  0  0  0  0  0
   -2.5227    0.4361   -0.2891 C   0  0  0  0  0  0  0  0  0  0  0  0
   -3.8478   -0.2331    0.1830 C   0  0  0  0  0  0  0  0  0  0  0  0
   -3.9041   -1.4959   -0.2232 F   0  0  0  0  0  0  0  0  0  0  0  0
   -3.9535   -0.1954    1.5029 F   0  0  0  0  0  0  0  0  0  0  0  0
   -4.8696    0.4311   -0.3426 F   0  0  0  0  0  0  0  0  0  0  0  0
   -2.4509    1.6400    0.2953 F   0  0  0  0  0  0  0  0  0  0  0  0
   -2.6001    0.5956   -1.6146 F   0  0  0  0  0  0  0  0  0  0  0  0
    5.2033    0.1681    0.1971 C   0  0  0  0  0  0  0  0  0  0  0  0
    6.2439   -0.6695   -0.2649 O   0  0  0  0  0  0  0  0  0  0  0  0
    7.0845   -0.2801   -0.0150 H   0  0  0  0  0  0  0  0  0  0  0  0
    5.2430    0.2818    1.2848 H   0  0  0  0  0  0  0  0  0  0  0  0
    5.2714    1.1646   -0.2517 H   0  0  0  0  0  0  0  0  0  0  0  0
    3.8398   -1.4891    0.2484 H   0  0  0  0  0  0  0  0  0  0  0  0
    3.8981   -0.6470   -1.2951 H   0  0  0  0  0  0  0  0  0  0  0  0
  1  2  1  0
  1  3  1  0
  1  4  1  0
  1  8  1  0
  4  5  1  0
  4  6  1  0
  4  7  1  0
  7 21  1  0
  7 26  1  0
  7 27  1  0
  8  9  1  0
  8 10  1  0
  8 11  1  0
  9 12  1  0
  9 13  1  0
  9 14  1  0
 14 15  1  0
 14 19  1  0
 14 20  1  0
 15 16  1  0
 15 17  1  0
 15 18  1  0
 21 22  1  0
 21 24  1  0
 21 25  1  0
 22 23  1  0
M  END
$$$$
Title Card Required
     RDKit          3D

  9  8  0  0  0  0  0  0  0  0999 V2000
    0.5863    0.0426   -0.0001 C   0  0  0  0  0  0  0  0  0  0  0  0
    1.0735   -0.5805   -1.0771 F   0  0  0  0  0  0  0  0  0  0  0  0
    1.0524    1.2923    0.0001 F   0  0  0  0  0  0  0  0  0  0  0  0
   -0.9210    0.0241   -0.0001 C   0  0  0  0  0  0  0  0  0  0  0  0
   -1.3846   -1.2270   -0.0003 F   0  0  0  0  0  0  0  0  0  0  0  0
   -1.7093    1.0749    0.0001 C   0  0  0  0  0  0  0  0  0  0  0  0
   -1.2854    2.0654    0.0001 H   0  0  0  0  0  0  0  0  0  0  0  0
   -2.7815    0.9515    0.0003 H   0  0  0  0  0  0  0  0  0  0  0  0
    1.0732   -0.5810    1.0772 F   0  0  0  0  0  0  0  0  0  0  0  0
  1  2  1  0
  1  3  1  0
  1  4  1  0
  1  9  1  0
  4  5  1  0
  4  6  2  0
  6  7  1  0
  6  8  1  0
M  END
$$$$
Title Card Required
     RDKit          3D

 18 17  0  0  0  0  0  0  0  0999 V2000
    1.2879    0.5141    0.1853 C   0  0  0  0  0  0  0  0  0  0  0  0
    1.2760    1.5621   -0.6501 F   0  0  0  0  0  0  0  0  0  0  0  0
    1.3170    0.9590    1.4461 F   0  0  0  0  0  0  0  0  0  0  0  0
   -0.0040   -0.3377   -0.0175 C   0  0  0  0  0  0  0  0  0  0  0  0
    0.1367   -1.0838   -1.1219 F   0  0  0  0  0  0  0  0  0  0  0  0
   -0.1324   -1.1512    1.0386 F   0  0  0  0  0  0  0  0  0  0  0  0
   -1.2921    0.5313   -0.1699 C   0  0  0  0  0  0  0  0  0  0  0  0
   -1.3056    1.0454   -1.4045 F   0  0  0  0  0  0  0  0  0  0  0  0
   -1.2547    1.5342    0.7199 F   0  0  0  0  0  0  0  0  0  0  0  0
    2.6097   -0.2696   -0.0689 C   0  0  0  0  0  0  0  0  0  0  0  0
    2.7682   -0.5246   -1.3590 F   0  0  0  0  0  0  0  0  0  0  0  0
    2.6125   -1.4134    0.6051 F   0  0  0  0  0  0  0  0  0  0  0  0
   -2.6185   -0.2521    0.0515 C   0  0  0  0  0  0  0  0  0  0  0  0
   -2.7382   -0.5834    1.3538 F   0  0  0  0  0  0  0  0  0  0  0  0
   -2.5721   -1.4182   -0.6319 F   0  0  0  0  0  0  0  0  0  0  0  0
   -3.6329    0.5249   -0.3524 O   0  0  0  0  0  0  0  0  0  0  0  0
   -4.4673    0.0953   -0.1291 H   0  0  0  0  0  0  0  0  0  0  0  0
    3.6295    0.4728    0.3445 F   0  0  0  0  0  0  0  0  0  0  0  0
  1  2  1  0
  1  3  1  0
  1  4  1  0
  1 10  1  0
  4  5  1  0
  4  6  1  0
  4  7  1  0
  7  8  1  0
  7  9  1  0
  7 13  1  0
 10 11  1  0
 10 12  1  0
 10 18  1  0
 13 14  1  0
 13 15  1  0
 13 16  1  0
 16 17  1  0
M  END
$$$$
Title Card Required
     RDKit          3D

 17 16  0  0  0  0  0  0  0  0999 V2000
   -2.6131   -0.2715   -0.0650 C   0  0  0  0  0  0  0  0  0  0  0  0
   -3.6333    0.4865    0.3145 F   0  0  0  0  0  0  0  0  0  0  0  0
   -2.7623   -0.5738   -1.3458 F   0  0  0  0  0  0  0  0  0  0  0  0
   -2.6190   -1.3893    0.6510 F   0  0  0  0  0  0  0  0  0  0  0  0
   -1.2916    0.5191    0.1682 C   0  0  0  0  0  0  0  0  0  0  0  0
   -1.2705    1.5372   -0.7029 F   0  0  0  0  0  0  0  0  0  0  0  0
   -1.3230    1.0068    1.4126 F   0  0  0  0  0  0  0  0  0  0  0  0
    0.0001   -0.3394    0.0002 C   0  0  0  0  0  0  0  0  0  0  0  0
   -0.1278   -1.1197   -1.0812 F   0  0  0  0  0  0  0  0  0  0  0  0
    0.1282   -1.1192    1.0819 F   0  0  0  0  0  0  0  0  0  0  0  0
    1.2916    0.5192   -0.1681 C   0  0  0  0  0  0  0  0  0  0  0  0
    1.2706    1.5373    0.7029 F   0  0  0  0  0  0  0  0  0  0  0  0
    1.3227    1.0069   -1.4126 F   0  0  0  0  0  0  0  0  0  0  0  0
    2.6131   -0.2715    0.0648 C   0  0  0  0  0  0  0  0  0  0  0  0
    2.6189   -1.3892   -0.6514 F   0  0  0  0  0  0  0  0  0  0  0  0
    3.6333    0.4866   -0.3145 F   0  0  0  0  0  0  0  0  0  0  0  0
    2.7622   -0.5741    1.3455 F   0  0  0  0  0  0  0  0  0  0  0  0
  1  2  1  0
  1  3  1  0
  1  4  1  0
  1  5  1  0
  5  6  1  0
  5  7  1  0
  5  8  1  0
  8  9  1  0
  8 10  1  0
  8 11  1  0
 11 12  1  0
 11 13  1  0
 11 14  1  0
 14 15  1  0
 14 16  1  0
 14 17  1  0
M  END
$$$$
/home/yang/projects/t99_calc/v1/qchem_data/combined/log_fchk/1_pentane.log
     RDKit          3D

 17 16  0  0  0  0  0  0  0  0999 V2000
   -1.0712    0.5348   -0.0261 C   0  0  0  0  0  0  0  0  0  0  0  0
   -1.0679    1.2523    1.1061 F   0  0  0  0  0  0  0  0  0  0  0  0
   -1.1129    1.3649   -1.0730 F   0  0  0  0  0  0  0  0  0  0  0  0
    0.2345   -0.3116   -0.1040 C   0  0  0  0  0  0  0  0  0  0  0  0
    0.1119   -1.3815    0.6924 F   0  0  0  0  0  0  0  0  0  0  0  0
    0.3925   -0.7343   -1.3704 F   0  0  0  0  0  0  0  0  0  0  0  0
    1.5205    0.4685    0.3005 C   0  0  0  0  0  0  0  0  0  0  0  0
    1.5730    0.5713    1.6393 F   0  0  0  0  0  0  0  0  0  0  0  0
    1.4713    1.6943   -0.2266 F   0  0  0  0  0  0  0  0  0  0  0  0
    2.8055   -0.2322   -0.2129 C   0  0  0  0  0  0  0  0  0  0  0  0
    3.5119    0.2401   -1.0448 O   0  0  0  0  0  0  0  0  0  0  0  0
    2.9837   -1.3931    0.4079 O   0  0  0  0  0  0  0  0  0  0  0  0
    3.7866   -1.7981    0.0591 H   0  0  0  0  0  0  0  0  0  0  0  0
   -2.3789   -0.3106   -0.0422 C   0  0  0  0  0  0  0  0  0  0  0  0
   -2.5277   -0.9748    1.0943 F   0  0  0  0  0  0  0  0  0  0  0  0
   -2.3621   -1.1731   -1.0520 F   0  0  0  0  0  0  0  0  0  0  0  0
   -3.4132    0.5064   -0.1942 F   0  0  0  0  0  0  0  0  0  0  0  0
  1  2  1  0
  3  1  1  0
  4  1  1  0
  4  7  1  0
  4  5  1  0
  6  4  1  0
  7  8  1  0
  9  7  1  0
 10  7  1  0
 10 12  1  0
 11 10  2  0
 13 12  1  0
 14  1  1  0
 14 15  1  0
 16 14  1  0
 17 14  1  0
M  END
>  <program>  (20) 
Gaussian 16, Revision A.03

>  <basis>  (20) 
6-311+G(2d,2p) (5D, 7F)

>  <File Format>  (20) 
g03

$$$$
/home/yang/projects/t99_calc/v1/qchem_data/combined/log_fchk/c3f6o2_1st.log
     RDKit          3D

 11 10  0  0  1  0  0  0  0  0999 V2000
   -0.3486    0.6617   -0.0790 C   0  0  0  0  0  3  0  0  0  0  0  0
    1.0740    0.2351   -0.2740 C   0  0  0  0  0  0  0  0  0  0  0  0
    1.2278   -0.4623   -1.3947 F   0  0  0  0  0  0  0  0  0  0  0  0
   -0.5304    1.8305    0.4880 F   0  0  0  0  0  0  0  0  0  0  0  0
    1.8727    1.2933   -0.3098 F   0  0  0  0  0  0  0  0  0  0  0  0
    1.4413   -0.5911    0.8387 O   0  0  0  0  0  0  0  0  0  0  0  0
    2.6742   -1.0151    0.7208 O   0  0  0  0  0  1  0  0  0  0  0  0
   -1.5254   -0.2659   -0.0041 C   0  0  0  0  0  0  0  0  0  0  0  0
   -1.8763   -0.4975    1.2654 F   0  0  0  0  0  0  0  0  0  0  0  0
   -2.5804    0.2713   -0.6177 F   0  0  0  0  0  0  0  0  0  0  0  0
   -1.2382   -1.4282   -0.5796 F   0  0  0  0  0  0  0  0  0  0  0  0
  1  8  1  0
  1  4  1  0
  2  1  1  0
  2  6  1  0
  3  2  1  0
  5  2  1  0
  7  6  1  0
  8  9  1  0
 10  8  1  0
 11  8  1  0
M  RAD  2   1   2   7   2
M  END
>  <program>  (21) 
Gaussian 16, Revision A.03

>  <basis>  (21) 
6-311+G(2d,2p) (5D, 7F)

>  <File Format>  (21) 
g03

$$$$
Title Card Required
     RDKit          3D

 22 21  0  0  1  0  0  0  0  0999 V2000
    0.2140   -0.0398    0.3258 C   0  0  0  0  0  0  0  0  0  0  0  0
    0.3629   -1.3669    0.2077 F   0  0  0  0  0  0  0  0  0  0  0  0
    0.2673    0.2858    1.6263 F   0  0  0  0  0  0  0  0  0  0  0  0
    1.4314    0.6344   -0.3799 C   0  0  0  0  0  0  0  0  0  0  0  0
    1.5531    0.1271   -1.6165 F   0  0  0  0  0  0  0  0  0  0  0  0
    1.1876    1.9568   -0.4673 F   0  0  0  0  0  0  0  0  0  0  0  0
    2.7110    0.4143    0.3739 C   0  0  0  0  0  3  0  0  0  0  0  0
    2.9925    1.2846    1.3134 F   0  0  0  0  0  0  0  0  0  0  0  0
   -1.1800    0.3830   -0.2332 C   0  0  0  0  0  0  0  0  0  0  0  0
   -1.1237    0.4321   -1.5700 F   0  0  0  0  0  0  0  0  0  0  0  0
   -1.4664    1.6055    0.2334 F   0  0  0  0  0  0  0  0  0  0  0  0
    3.8315   -0.4899   -0.0457 C   0  0  0  0  0  0  0  0  0  0  0  0
    4.5923    0.0638   -1.0006 F   0  0  0  0  0  0  0  0  0  0  0  0
    4.6174   -0.7437    0.9977 F   0  0  0  0  0  0  0  0  0  0  0  0
    3.3590   -1.6398   -0.5190 F   0  0  0  0  0  0  0  0  0  0  0  0
   -2.3247   -0.5974    0.1705 C   0  0  0  0  0  0  0  0  0  0  0  0
   -2.1916   -0.9343    1.4610 F   0  0  0  0  0  0  0  0  0  0  0  0
   -2.2324   -1.6984   -0.5824 F   0  0  0  0  0  0  0  0  0  0  0  0
   -3.7563   -0.0133   -0.0172 C   0  0  0  0  0  0  0  0  0  0  0  0
   -4.0013    0.9323    0.8772 F   0  0  0  0  0  0  0  0  0  0  0  0
   -4.6379   -0.9910    0.1461 F   0  0  0  0  0  0  0  0  0  0  0  0
   -3.8967    0.4920   -1.2366 F   0  0  0  0  0  0  0  0  0  0  0  0
  1  2  1  0
  1  3  1  0
  1  4  1  0
  1  9  1  0
  4  5  1  0
  4  6  1  0
  4  7  1  0
  7  8  1  0
  7 12  1  0
  9 10  1  0
  9 11  1  0
  9 16  1  0
 12 13  1  0
 12 14  1  0
 12 15  1  0
 16 17  1  0
 16 18  1  0
 16 19  1  0
 19 20  1  0
 19 21  1  0
 19 22  1  0
M  RAD  1   7   2
M  END
$$$$
/home/yang/projects/t99_calc/v1/qchem_data/combined/log_fchk/1H_dodecane.log
     RDKit          3D

 38 37  0  0  0  0  0  0  0  0999 V2000
    4.7631   -0.1588   -0.3296 C   0  0  0  0  0  0  0  0  0  0  0  0
    4.8473    0.5889   -1.4369 F   0  0  0  0  0  0  0  0  0  0  0  0
    4.6808   -1.4497   -0.6800 F   0  0  0  0  0  0  0  0  0  0  0  0
    6.0601    0.0378    0.5114 C   0  0  0  0  0  0  0  0  0  0  0  0
    5.9842    1.1964    1.1895 F   0  0  0  0  0  0  0  0  0  0  0  0
    6.1574   -0.9699    1.3960 F   0  0  0  0  0  0  0  0  0  0  0  0
    7.3758    0.0571   -0.2950 C   0  0  0  0  0  0  0  0  0  0  0  0
    7.4698    1.1843   -1.0173 F   0  0  0  0  0  0  0  0  0  0  0  0
    7.4176   -1.0003   -1.1259 F   0  0  0  0  0  0  0  0  0  0  0  0
    3.4624    0.2432    0.4387 C   0  0  0  0  0  0  0  0  0  0  0  0
    2.1673   -0.3546   -0.2025 C   0  0  0  0  0  0  0  0  0  0  0  0
    3.3690    1.5792    0.4430 F   0  0  0  0  0  0  0  0  0  0  0  0
    3.5484   -0.1943    1.7014 F   0  0  0  0  0  0  0  0  0  0  0  0
    2.2572   -0.2644   -1.5350 F   0  0  0  0  0  0  0  0  0  0  0  0
    2.0781   -1.6444    0.1460 F   0  0  0  0  0  0  0  0  0  0  0  0
    0.8672    0.3850    0.2546 C   0  0  0  0  0  0  0  0  0  0  0  0
   -0.4281   -0.4530   -0.0035 C   0  0  0  0  0  0  0  0  0  0  0  0
   -0.3325   -1.0471   -1.1993 F   0  0  0  0  0  0  0  0  0  0  0  0
   -0.5229   -1.3906    0.9474 F   0  0  0  0  0  0  0  0  0  0  0  0
    0.9491    0.6427    1.5658 F   0  0  0  0  0  0  0  0  0  0  0  0
    0.7788    1.5403   -0.4160 F   0  0  0  0  0  0  0  0  0  0  0  0
    8.2117    0.0031    0.4052 H   0  0  0  0  0  0  0  0  0  0  0  0
   -1.7265    0.4188    0.0116 C   0  0  0  0  0  0  0  0  0  0  0  0
   -1.8082    1.0772   -1.1512 F   0  0  0  0  0  0  0  0  0  0  0  0
   -1.6470    1.3033    1.0134 F   0  0  0  0  0  0  0  0  0  0  0  0
   -3.0245   -0.4317    0.2065 C   0  0  0  0  0  0  0  0  0  0  0  0
   -4.3192    0.3306   -0.2260 C   0  0  0  0  0  0  0  0  0  0  0  0
   -5.6211   -0.2955    0.3653 C   0  0  0  0  0  0  0  0  0  0  0  0
   -6.9250    0.1583   -0.3560 C   0  0  0  0  0  0  0  0  0  0  0  0
   -2.9297   -1.5487   -0.5255 F   0  0  0  0  0  0  0  0  0  0  0  0
   -3.1248   -0.7614    1.5000 F   0  0  0  0  0  0  0  0  0  0  0  0
   -4.3951    0.3129   -1.5628 F   0  0  0  0  0  0  0  0  0  0  0  0
   -4.2413    1.6015    0.1890 F   0  0  0  0  0  0  0  0  0  0  0  0
   -5.5563   -1.6314    0.2794 F   0  0  0  0  0  0  0  0  0  0  0  0
   -5.7236    0.0576    1.6506 F   0  0  0  0  0  0  0  0  0  0  0  0
   -7.0050   -0.3739   -1.5662 F   0  0  0  0  0  0  0  0  0  0  0  0
   -6.9640    1.4815   -0.4572 F   0  0  0  0  0  0  0  0  0  0  0  0
   -7.9675   -0.2482    0.3564 F   0  0  0  0  0  0  0  0  0  0  0  0
  1 10  1  0
  1  4  1  0
  2  1  1  0
  3  1  1  0
  4  5  1  0
  4  6  1  0
  7 22  1  0
  7  4  1  0
  8  7  1  0
  9  7  1  0
 10 12  1  0
 10 13  1  0
 11 15  1  0
 11 16  1  0
 11 10  1  0
 14 11  1  0
 16 20  1  0
 17 23  1  0
 17 16  1  0
 17 19  1  0
 18 17  1  0
 21 16  1  0
 23 26  1  0
 23 25  1  0
 24 23  1  0
 26 31  1  0
 27 33  1  0
 27 26  1  0
 27 28  1  0
 28 35  1  0
 29 38  1  0
 29 28  1  0
 30 26  1  0
 32 27  1  0
 34 28  1  0
 36 29  1  0
 37 29  1  0
M  END
>  <program>  (23) 
Gaussian 16, Revision A.03

>  <basis>  (23) 
6-311+G(2d,2p) (5D, 7F)

>  <File Format>  (23) 
g03

$$$$
/home/yang/projects/t99_calc/v1/qchem_data/combined/log_fchk/c4_secondary_rad.log
     RDKit          3D

 13 12  0  0  1  0  0  0  0  0999 V2000
   -0.5484    0.5121    0.0133 C   0  0  0  0  0  0  0  0  0  0  0  0
   -0.4666    1.1702    1.1942 F   0  0  0  0  0  0  0  0  0  0  0  0
   -0.5360    1.4386   -0.9640 F   0  0  0  0  0  0  0  0  0  0  0  0
    0.6098   -0.4215   -0.1592 C   0  0  0  0  0  3  0  0  0  0  0  0
    0.3992   -1.7075    0.0209 F   0  0  0  0  0  0  0  0  0  0  0  0
    2.5183   -0.2533    1.1922 F   0  0  0  0  0  0  0  0  0  0  0  0
    2.1742    1.2948   -0.2780 F   0  0  0  0  0  0  0  0  0  0  0  0
    2.0451   -0.0046   -0.0352 C   0  0  0  0  0  0  0  0  0  0  0  0
    2.8019   -0.6837   -0.8980 F   0  0  0  0  0  0  0  0  0  0  0  0
   -1.9300   -0.1951   -0.0279 C   0  0  0  0  0  0  0  0  0  0  0  0
   -2.8882    0.7171    0.0286 F   0  0  0  0  0  0  0  0  0  0  0  0
   -2.0638   -1.0209    1.0020 F   0  0  0  0  0  0  0  0  0  0  0  0
   -2.0567   -0.8826   -1.1585 F   0  0  0  0  0  0  0  0  0  0  0  0
  1  2  1  0
  3  1  1  0
  4  8  1  0
  4  1  1  0
  4  5  1  0
  7  8  1  0
  8  6  1  0
  9  8  1  0
 10  1  1  0
 10 11  1  0
 10 12  1  0
 13 10  1  0
M  RAD  1   4   2
M  END
>  <program>  (24) 
Gaussian 16, Revision A.03

>  <basis>  (24) 
6-311+G(2d,2p) (5D, 7F)

>  <File Format>  (24) 
g03

$$$$
/home/yang/projects/t99_calc/v1/qchem_data/combined/log_fchk/c4f9H_secondary.log
     RDKit          3D

 14 13  0  0  1  0  0  0  0  0999 V2000
   -0.7584    1.4255   -1.2407 F   0  0  0  0  0  0  0  0  0  0  0  0
    0.7134    0.6414    0.4451 C   0  0  0  0  0  0  0  0  0  0  0  0
    0.9722   -1.6907    0.1389 F   0  0  0  0  0  0  0  0  0  0  0  0
    1.4086    1.7670    0.2024 F   0  0  0  0  0  0  0  0  0  0  0  0
    1.3816   -0.4218   -1.5638 F   0  0  0  0  0  0  0  0  0  0  0  0
    1.4724   -0.5220   -0.2444 C   0  0  0  0  0  0  0  0  0  0  0  0
    0.7318    0.4104    1.7701 F   0  0  0  0  0  0  0  0  0  0  0  0
   -1.7367   -0.2395    0.0822 C   0  0  0  0  0  0  0  0  0  0  0  0
    2.7521   -0.4772    0.1028 F   0  0  0  0  0  0  0  0  0  0  0  0
   -1.6873   -0.8484    1.2649 F   0  0  0  0  0  0  0  0  0  0  0  0
   -1.5153   -1.1341   -0.8733 F   0  0  0  0  0  0  0  0  0  0  0  0
   -2.9688    0.2441   -0.0860 F   0  0  0  0  0  0  0  0  0  0  0  0
   -0.7411    0.9262    0.0244 C   0  0  2  0  0  0  0  0  0  0  0  0
   -1.0966    1.6898    0.7196 H   0  0  0  0  0  0  0  0  0  0  0  0
  1 13  1  0
  2  7  1  0
  4  2  1  0
  5  6  1  0
  6  9  1  0
  6  3  1  0
  6  2  1  0
  8 10  1  0
 11  8  1  0
 12  8  1  0
 13  8  1  0
 13  2  1  0
 13 14  1  1
M  END
>  <program>  (25) 
Gaussian 16, Revision A.03

>  <basis>  (25) 
6-311+G(2d,2p) (5D, 7F)

>  <File Format>  (25) 
g03

$$$$
/home/yang/projects/t99_calc/v1/qchem_data/combined/log_fchk/2_hexene.log
     RDKit          3D

 18 17  0  0  0  0  0  0  0  0999 V2000
    0.5752    0.4554   -0.6723 C   0  0  0  0  0  0  0  0  0  0  0  0
    0.6249   -0.3777   -1.7213 F   0  0  0  0  0  0  0  0  0  0  0  0
    1.0612    1.6481   -1.0506 F   0  0  0  0  0  0  0  0  0  0  0  0
   -0.8597    0.6474   -0.2062 C   0  0  0  0  0  0  0  0  0  0  0  0
   -1.0818    1.8517    0.2908 F   0  0  0  0  0  0  0  0  0  0  0  0
   -1.8119   -0.2738   -0.2560 C   0  0  0  0  0  0  0  0  0  0  0  0
   -1.5663   -1.4851   -0.7313 F   0  0  0  0  0  0  0  0  0  0  0  0
   -3.2501   -0.1401    0.1909 C   0  0  0  0  0  0  0  0  0  0  0  0
   -4.0646   -0.4039   -0.8326 F   0  0  0  0  0  0  0  0  0  0  0  0
   -3.5288    1.0711    0.6493 F   0  0  0  0  0  0  0  0  0  0  0  0
   -3.5072   -1.0274    1.1539 F   0  0  0  0  0  0  0  0  0  0  0  0
    1.4724   -0.1132    0.4629 C   0  0  0  0  0  0  0  0  0  0  0  0
    1.3498    0.6893    1.5316 F   0  0  0  0  0  0  0  0  0  0  0  0
    1.0149   -1.3321    0.7823 F   0  0  0  0  0  0  0  0  0  0  0  0
    2.9855   -0.2421    0.1361 C   0  0  0  0  0  0  0  0  0  0  0  0
    3.5180    0.9483   -0.0998 F   0  0  0  0  0  0  0  0  0  0  0  0
    3.1718   -1.0191   -0.9221 F   0  0  0  0  0  0  0  0  0  0  0  0
    3.6003   -0.7856    1.1796 F   0  0  0  0  0  0  0  0  0  0  0  0
  1  4  1  0
  1 12  1  0
  2  1  1  0
  3  1  1  0
  4  5  1  0
  6  4  2  0
  6  8  1  0
  7  6  1  0
  8 10  1  0
  8 11  1  0
  9  8  1  0
 12 14  1  0
 12 13  1  0
 15 12  1  0
 15 18  1  0
 16 15  1  0
 17 15  1  0
M  END
>  <program>  (26) 
Gaussian 16, Revision A.03

>  <basis>  (26) 
6-311+G(2d,2p) (5D, 7F)

>  <File Format>  (26) 
g03

$$$$
/home/yang/projects/t99_calc/v1/qchem_data/combined/log_fchk/1_heptane.log
     RDKit          3D

 23 22  0  0  0  0  0  0  0  0999 V2000
    0.2374    0.4963    0.0960 C   0  0  0  0  0  0  0  0  0  0  0  0
    0.2809    1.0398    1.3190 F   0  0  0  0  0  0  0  0  0  0  0  0
    0.1810    1.4726   -0.8178 F   0  0  0  0  0  0  0  0  0  0  0  0
    1.5434   -0.3269   -0.1354 C   0  0  0  0  0  0  0  0  0  0  0  0
    1.4334   -1.5079    0.4858 F   0  0  0  0  0  0  0  0  0  0  0  0
    1.6879   -0.5417   -1.4541 F   0  0  0  0  0  0  0  0  0  0  0  0
    2.8339    0.3860    0.3699 C   0  0  0  0  0  0  0  0  0  0  0  0
    2.9120    0.2695    1.7061 F   0  0  0  0  0  0  0  0  0  0  0  0
    2.7708    1.6810    0.0503 F   0  0  0  0  0  0  0  0  0  0  0  0
    4.1111   -0.2139   -0.2741 C   0  0  0  0  0  0  0  0  0  0  0  0
    4.8029    0.3934   -1.0271 O   0  0  0  0  0  0  0  0  0  0  0  0
    4.3011   -1.4612    0.1416 O   0  0  0  0  0  0  0  0  0  0  0  0
    5.0983   -1.7995   -0.2829 H   0  0  0  0  0  0  0  0  0  0  0  0
   -1.0583   -0.3717   -0.0099 C   0  0  0  0  0  0  0  0  0  0  0  0
   -1.1890   -1.0809    1.1186 F   0  0  0  0  0  0  0  0  0  0  0  0
   -0.9384   -1.2164   -1.0429 F   0  0  0  0  0  0  0  0  0  0  0  0
   -2.3483    0.4798   -0.2260 C   0  0  0  0  0  0  0  0  0  0  0  0
   -2.3904    0.8826   -1.5001 F   0  0  0  0  0  0  0  0  0  0  0  0
   -2.3178    1.5539    0.5749 F   0  0  0  0  0  0  0  0  0  0  0  0
   -3.6703   -0.2887    0.0708 C   0  0  0  0  0  0  0  0  0  0  0  0
   -3.6840   -1.4544   -0.5646 F   0  0  0  0  0  0  0  0  0  0  0  0
   -3.8130   -0.4997    1.3706 F   0  0  0  0  0  0  0  0  0  0  0  0
   -4.6916    0.4433   -0.3549 F   0  0  0  0  0  0  0  0  0  0  0  0
  1  2  1  0
  3  1  1  0
  4  1  1  0
  4  7  1  0
  4  5  1  0
  6  4  1  0
  7  8  1  0
  9  7  1  0
 10 12  1  0
 10  7  1  0
 11 10  2  0
 13 12  1  0
 14  1  1  0
 14 15  1  0
 16 14  1  0
 17 14  1  0
 17 20  1  0
 17 19  1  0
 18 17  1  0
 20 22  1  0
 21 20  1  0
 23 20  1  0
M  END
>  <program>  (27) 
Gaussian 16, Revision A.03

>  <basis>  (27) 
6-311+G(2d,2p) (5D, 7F)

>  <File Format>  (27) 
g03

$$$$
/home/yang/projects/t99_calc/v1/qchem_data/combined/log_fchk/51_hexene.log
     RDKit          3D

 18 17  0  0  0  0  0  0  0  0999 V2000
    1.5299    0.4238    0.3261 C   0  0  0  0  0  0  0  0  0  0  0  0
    1.5189    0.4638    1.6719 F   0  0  0  0  0  0  0  0  0  0  0  0
    1.4979    1.6881   -0.1389 F   0  0  0  0  0  0  0  0  0  0  0  0
    2.7906   -0.2574   -0.1505 C   0  0  0  0  0  0  0  0  0  0  0  0
    2.9443   -1.4580    0.4126 F   0  0  0  0  0  0  0  0  0  0  0  0
    0.2327   -0.2982   -0.1532 C   0  0  0  0  0  0  0  0  0  0  0  0
   -1.0718    0.5374    0.0243 C   0  0  0  0  0  0  0  0  0  0  0  0
   -2.3809   -0.3005   -0.0723 C   0  0  0  0  0  0  0  0  0  0  0  0
    0.1121   -1.4494    0.5234 F   0  0  0  0  0  0  0  0  0  0  0  0
    0.3674   -0.5803   -1.4591 F   0  0  0  0  0  0  0  0  0  0  0  0
   -1.1194    1.4712   -0.9337 F   0  0  0  0  0  0  0  0  0  0  0  0
   -1.0692    1.1396    1.2210 F   0  0  0  0  0  0  0  0  0  0  0  0
   -2.5235   -1.0804    0.9890 F   0  0  0  0  0  0  0  0  0  0  0  0
   -2.3757   -1.0516   -1.1675 F   0  0  0  0  0  0  0  0  0  0  0  0
    3.6552    0.2381   -1.0064 C   0  0  0  0  0  0  0  0  0  0  0  0
    3.4872    1.2091   -1.4418 H   0  0  0  0  0  0  0  0  0  0  0  0
    4.5367   -0.3239   -1.2749 H   0  0  0  0  0  0  0  0  0  0  0  0
   -3.4149    0.5300   -0.1290 F   0  0  0  0  0  0  0  0  0  0  0  0
  1  2  1  0
  3  1  1  0
  4  1  1  0
  4  5  1  0
  6  7  1  0
  6  1  1  0
  6  9  1  0
  7 12  1  0
  8  7  1  0
  8 13  1  0
 10  6  1  0
 11  7  1  0
 14  8  1  0
 15  4  2  0
 16 15  1  0
 17 15  1  0
 18  8  1  0
M  END
>  <program>  (28) 
Gaussian 16, Revision A.03

>  <basis>  (28) 
6-311+G(2d,2p) (5D, 7F)

>  <File Format>  (28) 
g03

$$$$
Title Card Required
     RDKit          3D

 13 12  0  0  0  0  0  0  0  0999 V2000
    1.7795   -0.0821   -0.0387 C   0  0  0  0  0  0  0  0  0  0  0  0
    0.3367    0.4773   -0.1891 C   0  0  0  0  0  0  0  0  0  0  0  0
   -0.7901   -0.4688    0.3143 C   0  0  0  0  0  0  0  0  0  0  0  0
   -2.1821   -0.0179   -0.1871 C   0  0  0  0  0  0  0  0  0  0  0  0
    0.1185    0.7222   -1.4923 F   0  0  0  0  0  0  0  0  0  0  0  0
    0.2657    1.6284    0.4867 F   0  0  0  0  0  0  0  0  0  0  0  0
    1.9808   -1.0956   -0.8662 F   0  0  0  0  0  0  0  0  0  0  0  0
    1.9863   -0.4880    1.2081 F   0  0  0  0  0  0  0  0  0  0  0  0
   -2.8557   -0.5967   -0.9498 O   0  0  0  0  0  0  0  0  0  0  0  0
   -0.5663   -1.7042   -0.1370 F   0  0  0  0  0  0  0  0  0  0  0  0
   -0.7934   -0.4847    1.6558 F   0  0  0  0  0  0  0  0  0  0  0  0
   -2.5261    1.1313    0.3827 F   0  0  0  0  0  0  0  0  0  0  0  0
    2.6436    0.8821   -0.3263 F   0  0  0  0  0  0  0  0  0  0  0  0
  1  2  1  0
  1  7  1  0
  1  8  1  0
  1 13  1  0
  2  3  1  0
  2  5  1  0
  2  6  1  0
  3  4  1  0
  3 10  1  0
  3 11  1  0
  4  9  2  0
  4 12  1  0
M  END
$$$$
Title Card Required
     RDKit          3D

  8  7  0  0  0  0  0  0  0  0999 V2000
   -0.6008    0.7518   -0.0000 C   0  0  0  0  0  0  0  0  0  0  0  0
   -0.2332    1.4413    1.0941 F   0  0  0  0  0  0  0  0  0  0  0  0
   -0.2332    1.4413   -1.0941 F   0  0  0  0  0  0  0  0  0  0  0  0
    0.1217   -0.6035    0.0000 C   0  0  0  0  0  0  0  0  0  0  0  0
   -0.2332   -1.2972    1.0810 F   0  0  0  0  0  0  0  0  0  0  0  0
    1.4391   -0.4549    0.0000 F   0  0  0  0  0  0  0  0  0  0  0  0
   -0.2332   -1.2972   -1.0810 F   0  0  0  0  0  0  0  0  0  0  0  0
   -1.6822    0.6109   -0.0000 H   0  0  0  0  0  0  0  0  0  0  0  0
  1  2  1  0
  1  3  1  0
  1  4  1  0
  1  8  1  0
  4  5  1  0
  4  6  1  0
  4  7  1  0
M  END
$$$$
/home/yang/projects/t99_calc/v1/qchem_data/combined/log_fchk/pfhxa.log
     RDKit          3D

 20 19  0  0  0  0  0  0  0  0999 V2000
    0.4430   -0.3940    0.0915 C   0  0  0  0  0  0  0  0  0  0  0  0
    0.4213   -1.0232    1.2738 F   0  0  0  0  0  0  0  0  0  0  0  0
    0.5790   -1.3018   -0.8833 F   0  0  0  0  0  0  0  0  0  0  0  0
   -0.9122    0.3535   -0.1096 C   0  0  0  0  0  0  0  0  0  0  0  0
   -0.8915    1.4954    0.5891 F   0  0  0  0  0  0  0  0  0  0  0  0
   -1.0503    0.6460   -1.4141 F   0  0  0  0  0  0  0  0  0  0  0  0
   -2.1590   -0.4751    0.3230 C   0  0  0  0  0  0  0  0  0  0  0  0
   -2.2621   -0.4559    1.6624 F   0  0  0  0  0  0  0  0  0  0  0  0
   -2.0059   -1.7382   -0.0823 F   0  0  0  0  0  0  0  0  0  0  0  0
   -3.4645    0.0826   -0.3018 C   0  0  0  0  0  0  0  0  0  0  0  0
   -4.1021   -0.5143   -1.1090 O   0  0  0  0  0  0  0  0  0  0  0  0
   -3.7453    1.2814    0.1968 O   0  0  0  0  0  0  0  0  0  0  0  0
   -4.5574    1.5950   -0.2185 H   0  0  0  0  0  0  0  0  0  0  0  0
    1.6781    0.5596    0.0704 C   0  0  0  0  0  0  0  0  0  0  0  0
    3.0386   -0.1695   -0.1376 C   0  0  0  0  0  0  0  0  0  0  0  0
    1.7412    1.2110    1.2363 F   0  0  0  0  0  0  0  0  0  0  0  0
    1.5408    1.4488   -0.9236 F   0  0  0  0  0  0  0  0  0  0  0  0
    4.0212    0.6948    0.0827 F   0  0  0  0  0  0  0  0  0  0  0  0
    3.1593   -1.1815    0.7130 F   0  0  0  0  0  0  0  0  0  0  0  0
    3.1463   -0.6259   -1.3762 F   0  0  0  0  0  0  0  0  0  0  0  0
  1  2  1  0
  3  1  1  0
  4  1  1  0
  4  7  1  0
  4  5  1  0
  6  4  1  0
  7  8  1  0
  9  7  1  0
 10 12  1  0
 10  7  1  0
 11 10  2  0
 13 12  1  0
 14  1  1  0
 14 16  1  0
 15 14  1  0
 15 18  1  0
 15 19  1  0
 17 14  1  0
 20 15  1  0
M  END
>  <program>  (31) 
Gaussian 16, Revision A.03

>  <basis>  (31) 
6-311+G(2d,2p) (5D, 7F)

>  <File Format>  (31) 
g03

$$$$
/home/yang/projects/t99_calc/v1/qchem_data/combined/log_fchk/cfo2h.log
     RDKit          3D

  5  4  0  0  0  0  0  0  0  0999 V2000
   -0.0115    0.1241   -0.0001 C   0  0  0  0  0  0  0  0  0  0  0  0
   -1.0835   -0.6485    0.0001 F   0  0  0  0  0  0  0  0  0  0  0  0
   -0.0570    1.3058   -0.0000 O   0  0  0  0  0  0  0  0  0  0  0  0
    1.0558   -0.6583   -0.0002 O   0  0  0  0  0  0  0  0  0  0  0  0
    1.8303   -0.0877    0.0016 H   0  0  0  0  0  0  0  0  0  0  0  0
  1  3  2  0
  1  2  1  0
  4  1  1  0
  4  5  1  0
M  END
>  <program>  (32) 
Gaussian 16, Revision A.03

>  <basis>  (32) 
6-311+G(2d,2p) (5D, 7F)

>  <File Format>  (32) 
g03

$$$$
/home/yang/projects/t99_calc/v1/qchem_data/combined/log_fchk/pentane1H.log
     RDKit          3D

 17 16  0  0  0  0  0  0  0  0999 V2000
    1.0811    0.5212    0.1286 C   0  0  0  0  0  0  0  0  0  0  0  0
    1.1153    1.4609   -0.8272 F   0  0  0  0  0  0  0  0  0  0  0  0
    1.1020    1.1145    1.3270 F   0  0  0  0  0  0  0  0  0  0  0  0
   -0.2347   -0.3066    0.0011 C   0  0  0  0  0  0  0  0  0  0  0  0
   -0.1045   -1.1802   -1.0071 F   0  0  0  0  0  0  0  0  0  0  0  0
   -0.4116   -0.9869    1.1413 F   0  0  0  0  0  0  0  0  0  0  0  0
   -1.4945    0.5685   -0.2693 C   0  0  0  0  0  0  0  0  0  0  0  0
   -1.4863    0.9454   -1.5601 F   0  0  0  0  0  0  0  0  0  0  0  0
   -1.4484    1.6715    0.4980 F   0  0  0  0  0  0  0  0  0  0  0  0
   -2.8503   -0.1209   -0.0101 C   0  0  0  0  0  0  0  0  0  0  0  0
   -3.0424   -0.3030    1.3056 F   0  0  0  0  0  0  0  0  0  0  0  0
   -2.8804   -1.3164   -0.6266 F   0  0  0  0  0  0  0  0  0  0  0  0
   -3.6434    0.5146   -0.4090 H   0  0  0  0  0  0  0  0  0  0  0  0
    2.3814   -0.3256   -0.0020 C   0  0  0  0  0  0  0  0  0  0  0  0
    2.5510   -0.7430   -1.2478 F   0  0  0  0  0  0  0  0  0  0  0  0
    2.3375   -1.3765    0.8078 F   0  0  0  0  0  0  0  0  0  0  0  0
    3.4174    0.4321    0.3356 F   0  0  0  0  0  0  0  0  0  0  0  0
  1  3  1  0
  2  1  1  0
  4  1  1  0
  4  6  1  0
  5  4  1  0
  7 10  1  0
  7  4  1  0
  7  9  1  0
  8  7  1  0
 10 11  1  0
 12 10  1  0
 13 10  1  0
 14  1  1  0
 14 17  1  0
 14 16  1  0
 15 14  1  0
M  END
>  <program>  (33) 
Gaussian 16, Revision A.03

>  <basis>  (33) 
6-311+G(2d,2p) (5D, 7F)

>  <File Format>  (33) 
g03

$$$$
Title Card Required
     RDKit          3D

 18 17  0  0  0  0  0  0  0  0999 V2000
    1.0061    0.3618    0.7130 C   0  0  0  0  0  0  0  0  0  0  0  0
    0.7946    1.4946    1.4026 F   0  0  0  0  0  0  0  0  0  0  0  0
    1.0621   -0.6679    1.5765 F   0  0  0  0  0  0  0  0  0  0  0  0
    2.3057    0.4934   -0.0357 C   0  0  0  0  0  0  0  0  0  0  0  0
    2.5554    1.7142   -0.5064 F   0  0  0  0  0  0  0  0  0  0  0  0
    3.1740   -0.4780   -0.2755 C   0  0  0  0  0  0  0  0  0  0  0  0
    4.2824   -0.2855   -0.9336 F   0  0  0  0  0  0  0  0  0  0  0  0
    3.0348   -1.7163    0.1017 F   0  0  0  0  0  0  0  0  0  0  0  0
   -0.2040    0.1253   -0.2414 C   0  0  0  0  0  0  0  0  0  0  0  0
   -1.5523   -0.2002    0.4685 C   0  0  0  0  0  0  0  0  0  0  0  0
   -2.8019   -0.0856   -0.4543 C   0  0  0  0  0  0  0  0  0  0  0  0
    0.1005   -0.9087   -1.0424 F   0  0  0  0  0  0  0  0  0  0  0  0
   -0.3511    1.2236   -0.9984 F   0  0  0  0  0  0  0  0  0  0  0  0
   -1.7396    0.6336    1.4997 F   0  0  0  0  0  0  0  0  0  0  0  0
   -1.5008   -1.4563    0.9274 F   0  0  0  0  0  0  0  0  0  0  0  0
   -3.8520   -0.5781    0.1903 F   0  0  0  0  0  0  0  0  0  0  0  0
   -2.6236   -0.7773   -1.5734 F   0  0  0  0  0  0  0  0  0  0  0  0
   -3.0477    1.1797   -0.7603 F   0  0  0  0  0  0  0  0  0  0  0  0
  1  2  1  0
  1  3  1  0
  1  4  1  0
  1  9  1  0
  4  5  1  0
  4  6  2  0
  6  7  1  0
  6  8  1  0
  9 10  1  0
  9 12  1  0
  9 13  1  0
 10 11  1  0
 10 14  1  0
 10 15  1  0
 11 16  1  0
 11 17  1  0
 11 18  1  0
M  END
$$$$
/home/yang/projects/t99_calc/v1/qchem_data/combined/log_fchk/pfpra.log
     RDKit          3D

 11 10  0  0  0  0  0  0  0  0999 V2000
    1.0806    0.2743   -0.2011 C   0  0  0  0  0  0  0  0  0  0  0  0
    1.1107    1.4971    0.3143 F   0  0  0  0  0  0  0  0  0  0  0  0
    1.0196    0.3707   -1.5269 F   0  0  0  0  0  0  0  0  0  0  0  0
   -0.1511   -0.5098    0.3210 C   0  0  0  0  0  0  0  0  0  0  0  0
   -0.1009   -0.5194    1.6646 F   0  0  0  0  0  0  0  0  0  0  0  0
   -0.0562   -1.7640   -0.1255 F   0  0  0  0  0  0  0  0  0  0  0  0
   -1.4964    0.0874   -0.1593 C   0  0  0  0  0  0  0  0  0  0  0  0
   -2.1528   -0.4094   -1.0185 O   0  0  0  0  0  0  0  0  0  0  0  0
   -1.7844    1.1989    0.5087 O   0  0  0  0  0  0  0  0  0  0  0  0
   -2.6204    1.5408    0.1704 H   0  0  0  0  0  0  0  0  0  0  0  0
    2.1956   -0.3586    0.1341 F   0  0  0  0  0  0  0  0  0  0  0  0
  1 11  1  0
  1  2  1  0
  1  4  1  0
  3  1  1  0
  4  5  1  0
  6  4  1  0
  7  4  1  0
  7  9  1  0
  8  7  2  0
 10  9  1  0
M  END
>  <program>  (35) 
Gaussian 16, Revision A.03

>  <basis>  (35) 
6-311+G(2d,2p) (5D, 7F)

>  <File Format>  (35) 
g03

$$$$
/home/yang/projects/t99_calc/v1/qchem_data/combined/log_fchk/cf3cfoh.log
     RDKit          3D

  8  7  0  0  1  0  0  0  0  0999 V2000
    0.8758   -0.0289   -0.3320 C   0  0  0  0  0  3  0  0  0  0  0  0
    1.4534   -1.1734   -0.0074 F   0  0  0  0  0  0  0  0  0  0  0  0
   -0.6014   -0.0006   -0.0182 C   0  0  0  0  0  0  0  0  0  0  0  0
   -1.2490   -0.9556   -0.6738 F   0  0  0  0  0  0  0  0  0  0  0  0
   -0.8672   -0.1486    1.2873 F   0  0  0  0  0  0  0  0  0  0  0  0
   -1.0951    1.1924   -0.3925 F   0  0  0  0  0  0  0  0  0  0  0  0
    1.1952    1.8322   -0.2167 H   0  0  0  0  0  0  0  0  0  0  0  0
    1.6226    1.0138    0.0493 O   0  0  0  0  0  0  0  0  0  0  0  0
  1  3  1  0
  1  2  1  0
  1  8  1  0
  3  5  1  0
  4  3  1  0
  6  3  1  0
  7  8  1  0
M  RAD  1   1   2
M  END
>  <program>  (36) 
Gaussian 16, Revision A.03

>  <basis>  (36) 
6-311+G(2d,2p) (5D, 7F)

>  <File Format>  (36) 
g03

$$$$
/home/yang/projects/t99_calc/v1/qchem_data/combined/log_fchk/c2f4_oh.log
     RDKit          3D

  8  7  0  0  0  0  0  0  0  0999 V2000
    0.8617    0.0343   -0.3533 C   0  0  0  0  0  3  0  0  0  0  0  0
    1.5369   -1.0517   -0.0506 F   0  0  0  0  0  0  0  0  0  0  0  0
    1.4932    1.1231    0.0340 F   0  0  0  0  0  0  0  0  0  0  0  0
   -0.7901   -0.0611    1.3257 F   0  0  0  0  0  0  0  0  0  0  0  0
   -1.1249   -1.1384   -0.5300 F   0  0  0  0  0  0  0  0  0  0  0  0
   -0.6191    0.0023   -0.0048 C   0  0  0  0  0  0  0  0  0  0  0  0
   -1.1751    1.1904   -1.3832 H   0  0  0  0  0  0  0  0  0  0  0  0
   -1.2895    1.0929   -0.4350 O   0  0  0  0  0  0  0  0  0  0  0  0
  1  2  1  0
  1  6  1  0
  1  3  1  0
  5  6  1  0
  6  4  1  0
  7  8  1  0
  8  6  1  0
M  RAD  1   1   2
M  END
>  <program>  (37) 
Gaussian 16, Revision A.03

>  <basis>  (37) 
6-311+G(2d,2p) (5D, 7F)

>  <File Format>  (37) 
g03

$$$$
/home/yang/projects/t99_calc/v1/qchem_data/combined/log_fchk/c6_secondary_rad.log
     RDKit          3D

 19 18  0  0  1  0  0  0  0  0999 V2000
   -0.4587   -0.0205    0.3029 C   0  0  0  0  0  0  0  0  0  0  0  0
   -0.3184   -1.3472    0.1646 F   0  0  0  0  0  0  0  0  0  0  0  0
   -0.4256    0.2789    1.6108 F   0  0  0  0  0  0  0  0  0  0  0  0
    0.7761    0.6544   -0.3700 C   0  0  0  0  0  0  0  0  0  0  0  0
    0.9040    0.1773   -1.6181 F   0  0  0  0  0  0  0  0  0  0  0  0
    0.5528    1.9819   -0.4263 F   0  0  0  0  0  0  0  0  0  0  0  0
    2.0436    0.3959    0.3921 C   0  0  0  0  0  3  0  0  0  0  0  0
    2.3242    1.2355    1.3594 F   0  0  0  0  0  0  0  0  0  0  0  0
   -1.8397    0.4202   -0.2659 C   0  0  0  0  0  0  0  0  0  0  0  0
   -1.7866    0.4525   -1.6042 F   0  0  0  0  0  0  0  0  0  0  0  0
   -2.1179    1.6462    0.1905 F   0  0  0  0  0  0  0  0  0  0  0  0
    3.1585   -0.5089   -0.0409 C   0  0  0  0  0  0  0  0  0  0  0  0
    3.9350    0.0621   -0.9726 F   0  0  0  0  0  0  0  0  0  0  0  0
    3.9307   -0.7998    1.0031 F   0  0  0  0  0  0  0  0  0  0  0  0
    2.6785   -1.6403   -0.5501 F   0  0  0  0  0  0  0  0  0  0  0  0
   -3.0199   -0.5139    0.1339 C   0  0  0  0  0  0  0  0  0  0  0  0
   -3.0310   -0.7143    1.4464 F   0  0  0  0  0  0  0  0  0  0  0  0
   -4.1595    0.0645   -0.2213 F   0  0  0  0  0  0  0  0  0  0  0  0
   -2.9261   -1.6821   -0.4836 F   0  0  0  0  0  0  0  0  0  0  0  0
  1  3  1  0
  2  1  1  0
  4  1  1  0
  4  7  1  0
  5  4  1  0
  6  4  1  0
  7  8  1  0
  9 16  1  0
  9 11  1  0
  9  1  1  0
 10  9  1  0
 12  7  1  0
 12 14  1  0
 13 12  1  0
 15 12  1  0
 16 17  1  0
 18 16  1  0
 19 16  1  0
M  RAD  1   7   2
M  END
>  <program>  (38) 
Gaussian 16, Revision A.03

>  <basis>  (38) 
6-311+G(2d,2p) (5D, 7F)

>  <File Format>  (38) 
g03

$$$$
/home/yang/projects/t99_calc/v1/qchem_data/combined/log_fchk/tfa.log
     RDKit          3D

  8  7  0  0  0  0  0  0  0  0999 V2000
    0.5998    0.0205   -0.0001 C   0  0  0  0  0  0  0  0  0  0  0  0
    1.1012   -0.5655    1.0845 F   0  0  0  0  0  0  0  0  0  0  0  0
    1.1027   -0.5802   -1.0758 F   0  0  0  0  0  0  0  0  0  0  0  0
   -0.9399   -0.1395    0.0001 C   0  0  0  0  0  0  0  0  0  0  0  0
   -1.4547   -1.2134   -0.0002 O   0  0  0  0  0  0  0  0  0  0  0  0
   -1.5635    1.0321   -0.0002 O   0  0  0  0  0  0  0  0  0  0  0  0
   -2.5123    0.8572    0.0001 H   0  0  0  0  0  0  0  0  0  0  0  0
    0.9849    1.2910   -0.0084 F   0  0  0  0  0  0  0  0  0  0  0  0
  1  4  1  0
  1  2  1  0
  3  1  1  0
  5  4  2  0
  6  7  1  0
  6  4  1  0
  8  1  1  0
M  END
>  <program>  (39) 
Gaussian 16, Revision A.03

>  <basis>  (39) 
6-311+G(2d,2p) (5D, 7F)

>  <File Format>  (39) 
g03

$$$$
/home/yang/projects/t99_calc/v1/qchem_data/combined/log_fchk/c6f13oh.log
     RDKit          3D

 21 20  0  0  0  0  0  0  0  0999 V2000
   -0.6749   -0.3984   -0.0173 C   0  0  0  0  0  0  0  0  0  0  0  0
   -0.7913   -1.0597    1.1409 F   0  0  0  0  0  0  0  0  0  0  0  0
   -0.6305   -1.2842   -1.0214 F   0  0  0  0  0  0  0  0  0  0  0  0
   -1.9232    0.5177   -0.2233 C   0  0  0  0  0  0  0  0  0  0  0  0
   -1.7867    1.6229    0.5250 F   0  0  0  0  0  0  0  0  0  0  0  0
   -1.9768    0.8688   -1.5127 F   0  0  0  0  0  0  0  0  0  0  0  0
    0.6683    0.4010    0.0127 C   0  0  0  0  0  0  0  0  0  0  0  0
    1.9195   -0.4973   -0.2397 C   0  0  0  0  0  0  0  0  0  0  0  0
    3.2665    0.1604    0.1835 C   0  0  0  0  0  0  0  0  0  0  0  0
    0.7881    0.9850    1.2124 F   0  0  0  0  0  0  0  0  0  0  0  0
    0.6418    1.3504   -0.9316 F   0  0  0  0  0  0  0  0  0  0  0  0
    1.9960   -0.7728   -1.5460 F   0  0  0  0  0  0  0  0  0  0  0  0
    1.7987   -1.6430    0.4452 F   0  0  0  0  0  0  0  0  0  0  0  0
    3.3642    0.2325    1.5026 F   0  0  0  0  0  0  0  0  0  0  0  0
    3.3716    1.3805   -0.3290 F   0  0  0  0  0  0  0  0  0  0  0  0
   -3.2747   -0.1525    0.1603 C   0  0  0  0  0  0  0  0  0  0  0  0
   -3.3238   -1.3969   -0.3659 F   0  0  0  0  0  0  0  0  0  0  0  0
   -3.3419   -0.3051    1.4987 F   0  0  0  0  0  0  0  0  0  0  0  0
   -4.2687    0.6232   -0.2958 O   0  0  0  0  0  0  0  0  0  0  0  0
   -5.1106    0.2816    0.0196 H   0  0  0  0  0  0  0  0  0  0  0  0
    4.2649   -0.5841   -0.2750 F   0  0  0  0  0  0  0  0  0  0  0  0
  1  7  1  0
  1  2  1  0
  3  1  1  0
  4  1  1  0
  4 16  1  0
  4  5  1  0
  6  4  1  0
  7 10  1  0
  8  7  1  0
  8  9  1  0
  8 13  1  0
  9 14  1  0
 11  7  1  0
 12  8  1  0
 15  9  1  0
 16 18  1  0
 17 16  1  0
 19 20  1  0
 19 16  1  0
 21  9  1  0
M  END
>  <program>  (40) 
Gaussian 16, Revision A.03

>  <basis>  (40) 
6-311+G(2d,2p) (5D, 7F)

>  <File Format>  (40) 
g03

$$$$
/home/yang/projects/t99_calc/v1/qchem_data/combined/log_fchk/c4_rad.log
     RDKit          3D

 13 12  0  0  0  0  0  0  0  0999 V2000
   -0.7659    0.6470    0.0458 C   0  0  0  0  0  0  0  0  0  0  0  0
   -0.5835    1.4673   -1.0009 F   0  0  0  0  0  0  0  0  0  0  0  0
   -0.6040    1.3346    1.1870 F   0  0  0  0  0  0  0  0  0  0  0  0
   -2.2006    0.1518    0.0018 C   0  0  0  0  0  3  0  0  0  0  0  0
   -2.5865   -0.3822   -1.1329 F   0  0  0  0  0  0  0  0  0  0  0  0
   -2.5943   -0.5490    1.0393 F   0  0  0  0  0  0  0  0  0  0  0  0
    0.3116   -0.4762   -0.0104 C   0  0  0  0  0  0  0  0  0  0  0  0
    1.7915    0.0010   -0.0115 C   0  0  0  0  0  0  0  0  0  0  0  0
    0.1155   -1.1926   -1.1273 F   0  0  0  0  0  0  0  0  0  0  0  0
    0.1416   -1.2741    1.0536 F   0  0  0  0  0  0  0  0  0  0  0  0
    2.0476    0.7383   -1.0828 F   0  0  0  0  0  0  0  0  0  0  0  0
    2.0586    0.7091    1.0771 F   0  0  0  0  0  0  0  0  0  0  0  0
    2.5804   -1.0669   -0.0304 F   0  0  0  0  0  0  0  0  0  0  0  0
  1  3  1  0
  2  1  1  0
  4  1  1  0
  4  6  1  0
  5  4  1  0
  7  1  1  0
  7 10  1  0
  8  7  1  0
  8 12  1  0
  9  7  1  0
 11  8  1  0
 13  8  1  0
M  RAD  1   4   2
M  END
>  <program>  (41) 
Gaussian 16, Revision A.03

>  <basis>  (41) 
6-311+G(2d,2p) (5D, 7F)

>  <File Format>  (41) 
g03

$$$$
/home/yang/projects/t99_calc/v1/qchem_data/combined/log_fchk/c2f4h2o_prod.log
     RDKit          3D

  9  8  0  0  0  0  0  0  0  0999 V2000
   -0.6277   -0.0136   -0.0125 C   0  0  0  0  0  0  0  0  0  0  0  0
    0.9285    0.0086   -1.5359 H   0  0  0  0  0  0  0  0  0  0  0  0
   -1.2349   -1.0456   -0.6093 F   0  0  0  0  0  0  0  0  0  0  0  0
   -0.6904   -0.2073    1.3233 F   0  0  0  0  0  0  0  0  0  0  0  0
    1.4207    1.1274    0.0478 F   0  0  0  0  0  0  0  0  0  0  0  0
    1.4966   -1.0622    0.0478 F   0  0  0  0  0  0  0  0  0  0  0  0
    0.8468    0.0005   -0.4489 C   0  0  0  0  0  0  0  0  0  0  0  0
   -0.8771    1.8699    0.0457 H   0  0  0  0  0  0  0  0  0  0  0  0
   -1.2868    1.1112   -0.3785 O   0  0  0  0  0  0  0  0  0  0  0  0
  1  4  1  0
  2  7  1  0
  3  1  1  0
  7  1  1  0
  7  5  1  0
  7  6  1  0
  9  1  1  0
  9  8  1  0
M  END
>  <program>  (42) 
Gaussian 16, Revision A.03

>  <basis>  (42) 
6-311+G(2d,2p) (5D, 7F)

>  <File Format>  (42) 
g03

$$$$
Title Card Required
     RDKit          3D

 18 17  0  0  0  0  0  0  0  0999 V2000
    0.0039   -0.3379    0.0174 C   0  0  0  0  0  0  0  0  0  0  0  0
    0.1316   -1.1514   -1.0387 F   0  0  0  0  0  0  0  0  0  0  0  0
   -0.1364   -1.0840    1.1218 F   0  0  0  0  0  0  0  0  0  0  0  0
    1.2923    0.5309    0.1697 C   0  0  0  0  0  0  0  0  0  0  0  0
    1.2550    1.5341   -0.7200 F   0  0  0  0  0  0  0  0  0  0  0  0
    1.3058    1.0449    1.4045 F   0  0  0  0  0  0  0  0  0  0  0  0
   -1.2879    0.5141   -0.1848 C   0  0  0  0  0  0  0  0  0  0  0  0
   -2.6100   -0.2694    0.0687 C   0  0  0  0  0  0  0  0  0  0  0  0
   -1.3170    0.9597   -1.4455 F   0  0  0  0  0  0  0  0  0  0  0  0
   -1.2758    1.5616    0.6511 F   0  0  0  0  0  0  0  0  0  0  0  0
   -2.7682   -0.5261    1.3586 F   0  0  0  0  0  0  0  0  0  0  0  0
   -2.6133   -1.4123   -0.6068 F   0  0  0  0  0  0  0  0  0  0  0  0
    2.6189   -0.2525   -0.0518 C   0  0  0  0  0  0  0  0  0  0  0  0
    2.5725   -1.4168    0.6338 F   0  0  0  0  0  0  0  0  0  0  0  0
    2.7368   -0.5852   -1.3536 F   0  0  0  0  0  0  0  0  0  0  0  0
    3.6344    0.5250    0.3503 O   0  0  0  0  0  0  0  0  0  0  0  0
    4.4685    0.1021    0.1260 H   0  0  0  0  0  0  0  0  0  0  0  0
   -3.6295    0.4739   -0.3433 F   0  0  0  0  0  0  0  0  0  0  0  0
  1  2  1  0
  1  3  1  0
  1  4  1  0
  1  7  1  0
  4  5  1  0
  4  6  1  0
  4 13  1  0
  7  8  1  0
  7  9  1  0
  7 10  1  0
  8 11  1  0
  8 12  1  0
  8 18  1  0
 13 14  1  0
 13 15  1  0
 13 16  1  0
 16 17  1  0
M  END
$$$$
/home/yang/projects/t99_calc/v1/qchem_data/combined/log_fchk/pfpnal.log
     RDKit          3D

 16 15  0  0  0  0  0  0  0  0999 V2000
   -1.0659    0.5391   -0.0250 C   0  0  0  0  0  0  0  0  0  0  0  0
    0.2365   -0.3114   -0.1122 C   0  0  0  0  0  0  0  0  0  0  0  0
    1.5252    0.4660    0.2924 C   0  0  0  0  0  0  0  0  0  0  0  0
    2.7997   -0.2423   -0.2245 C   0  0  0  0  0  0  0  0  0  0  0  0
    0.3964   -0.7259   -1.3801 F   0  0  0  0  0  0  0  0  0  0  0  0
    0.1209   -1.3842    0.6796 F   0  0  0  0  0  0  0  0  0  0  0  0
   -1.1063    1.3733   -1.0681 F   0  0  0  0  0  0  0  0  0  0  0  0
   -1.0519    1.2512    1.1102 F   0  0  0  0  0  0  0  0  0  0  0  0
    3.5386    0.1770   -1.0297 O   0  0  0  0  0  0  0  0  0  0  0  0
    1.4886    1.6910   -0.2339 F   0  0  0  0  0  0  0  0  0  0  0  0
    1.5938    0.5602    1.6284 F   0  0  0  0  0  0  0  0  0  0  0  0
    2.9568   -1.4094    0.3903 F   0  0  0  0  0  0  0  0  0  0  0  0
   -2.3761   -0.3027   -0.0388 C   0  0  0  0  0  0  0  0  0  0  0  0
   -2.3660   -1.1571   -1.0551 F   0  0  0  0  0  0  0  0  0  0  0  0
   -2.5168   -0.9742    1.0941 F   0  0  0  0  0  0  0  0  0  0  0  0
   -3.4073    0.5187   -0.1779 F   0  0  0  0  0  0  0  0  0  0  0  0
  1  8  1  0
  2  1  1  0
  2  3  1  0
  2  6  1  0
  3 11  1  0
  4  3  1  0
  4 12  1  0
  5  2  1  0
  7  1  1  0
  9  4  2  0
 10  3  1  0
 13  1  1  0
 13 15  1  0
 14 13  1  0
 16 13  1  0
M  END
>  <program>  (44) 
Gaussian 16, Revision A.03

>  <basis>  (44) 
6-311+G(2d,2p) (5D, 7F)

>  <File Format>  (44) 
g03

$$$$
Title Card Required
     RDKit          3D

 26 25  0  0  0  0  0  0  0  0999 V2000
    0.8789    0.4418    0.1808 C   0  0  0  0  0  0  0  0  0  0  0  0
    0.9498    0.8612    1.4503 F   0  0  0  0  0  0  0  0  0  0  0  0
    0.7587    1.5021   -0.6275 F   0  0  0  0  0  0  0  0  0  0  0  0
    2.2014   -0.3077   -0.1756 C   0  0  0  0  0  0  0  0  0  0  0  0
    2.1501   -1.5494    0.3229 F   0  0  0  0  0  0  0  0  0  0  0  0
    2.3074   -0.3809   -1.5132 F   0  0  0  0  0  0  0  0  0  0  0  0
    3.4851    0.3939    0.3613 C   0  0  0  0  0  0  0  0  0  0  0  0
    3.6099    0.1466    1.6759 F   0  0  0  0  0  0  0  0  0  0  0  0
    3.3720    1.7116    0.1764 F   0  0  0  0  0  0  0  0  0  0  0  0
    4.7585   -0.0944   -0.3774 C   0  0  0  0  0  0  0  0  0  0  0  0
    5.4041    0.6077   -1.0877 O   0  0  0  0  0  0  0  0  0  0  0  0
    5.0034   -1.3686   -0.0923 O   0  0  0  0  0  0  0  0  0  0  0  0
    5.7964   -1.6352   -0.5717 H   0  0  0  0  0  0  0  0  0  0  0  0
   -0.3913   -0.4572    0.0285 C   0  0  0  0  0  0  0  0  0  0  0  0
   -1.7148    0.3703   -0.0587 C   0  0  0  0  0  0  0  0  0  0  0  0
   -0.4605   -1.2782    1.0837 F   0  0  0  0  0  0  0  0  0  0  0  0
   -0.2776   -1.1872   -1.0887 F   0  0  0  0  0  0  0  0  0  0  0  0
   -1.6660    1.3739    0.8268 F   0  0  0  0  0  0  0  0  0  0  0  0
   -1.8153    0.8821   -1.2920 F   0  0  0  0  0  0  0  0  0  0  0  0
   -2.9875   -0.4817    0.2419 C   0  0  0  0  0  0  0  0  0  0  0  0
   -4.3171    0.1794   -0.2290 C   0  0  0  0  0  0  0  0  0  0  0  0
   -4.3949    1.4307    0.2076 F   0  0  0  0  0  0  0  0  0  0  0  0
   -4.4064    0.1725   -1.5504 F   0  0  0  0  0  0  0  0  0  0  0  0
   -5.3340   -0.5123    0.2686 F   0  0  0  0  0  0  0  0  0  0  0  0
   -2.8885   -1.6695   -0.3712 F   0  0  0  0  0  0  0  0  0  0  0  0
   -3.0753   -0.6747    1.5619 F   0  0  0  0  0  0  0  0  0  0  0  0
  1  2  1  0
  1  3  1  0
  1  4  1  0
  1 14  1  0
  4  5  1  0
  4  6  1  0
  4  7  1  0
  7  8  1  0
  7  9  1  0
  7 10  1  0
 10 11  2  0
 10 12  1  0
 12 13  1  0
 14 15  1  0
 14 16  1  0
 14 17  1  0
 15 18  1  0
 15 19  1  0
 15 20  1  0
 20 21  1  0
 20 25  1  0
 20 26  1  0
 21 22  1  0
 21 23  1  0
 21 24  1  0
M  END
$$$$
/home/yang/projects/t99_calc/v1/qchem_data/combined/log_fchk/c2f4.log
     RDKit          3D

  6  5  0  0  0  0  0  0  0  0999 V2000
    0.6588   -0.0001   -0.0000 C   0  0  0  0  0  0  0  0  0  0  0  0
   -0.6588   -0.0001   -0.0000 C   0  0  0  0  0  0  0  0  0  0  0  0
   -1.3799    1.0957    0.0000 F   0  0  0  0  0  0  0  0  0  0  0  0
    1.3801   -1.0956    0.0000 F   0  0  0  0  0  0  0  0  0  0  0  0
   -1.3801   -1.0956   -0.0000 F   0  0  0  0  0  0  0  0  0  0  0  0
    1.3799    1.0956   -0.0000 F   0  0  0  0  0  0  0  0  0  0  0  0
  1  6  1  0
  1  4  1  0
  2  1  2  0
  2  5  1  0
  2  3  1  0
M  END
>  <program>  (46) 
Gaussian 16, Revision A.03

>  <basis>  (46) 
6-311+G(2d,2p) (5D, 7F)

>  <File Format>  (46) 
g03

$$$$
/home/yang/projects/t99_calc/v1/qchem_data/combined/log_fchk/heptene.log
     RDKit          3D

 21 20  0  0  0  0  0  0  0  0999 V2000
    1.6779   -0.3086    0.7297 C   0  0  0  0  0  0  0  0  0  0  0  0
    1.5452   -1.3938    1.5095 F   0  0  0  0  0  0  0  0  0  0  0  0
    1.6398    0.7905    1.5044 F   0  0  0  0  0  0  0  0  0  0  0  0
    2.9948   -0.3989    0.0061 C   0  0  0  0  0  0  0  0  0  0  0  0
    3.3381   -1.6298   -0.3702 F   0  0  0  0  0  0  0  0  0  0  0  0
    0.4674   -0.2468   -0.2525 C   0  0  0  0  0  0  0  0  0  0  0  0
   -0.9090    0.0525    0.4203 C   0  0  0  0  0  0  0  0  0  0  0  0
   -2.1254   -0.2992   -0.4924 C   0  0  0  0  0  0  0  0  0  0  0  0
   -3.4674    0.3479   -0.0383 C   0  0  0  0  0  0  0  0  0  0  0  0
    0.4035   -1.4192   -0.9011 F   0  0  0  0  0  0  0  0  0  0  0  0
    0.7135    0.7263   -1.1440 F   0  0  0  0  0  0  0  0  0  0  0  0
   -0.9542    1.3573    0.7227 F   0  0  0  0  0  0  0  0  0  0  0  0
   -1.0205   -0.6557    1.5506 F   0  0  0  0  0  0  0  0  0  0  0  0
   -2.2932   -1.6258   -0.4921 F   0  0  0  0  0  0  0  0  0  0  0  0
   -1.8838    0.1129   -1.7449 F   0  0  0  0  0  0  0  0  0  0  0  0
   -3.4561    1.6558   -0.2480 F   0  0  0  0  0  0  0  0  0  0  0  0
   -3.6860    0.1144    1.2499 F   0  0  0  0  0  0  0  0  0  0  0  0
   -4.4559   -0.1861   -0.7443 F   0  0  0  0  0  0  0  0  0  0  0  0
    4.9245    0.4520   -0.9280 F   0  0  0  0  0  0  0  0  0  0  0  0
    3.7952    0.6122   -0.2971 C   0  0  0  0  0  0  0  0  0  0  0  0
    3.5628    1.8619   -0.0151 F   0  0  0  0  0  0  0  0  0  0  0  0
  1  3  1  0
  1  2  1  0
  4  1  1  0
  5  4  1  0
  6  7  1  0
  6  1  1  0
  7 12  1  0
  7 13  1  0
  8 14  1  0
  8  9  1  0
  8  7  1  0
  9 17  1  0
 10  6  1  0
 11  6  1  0
 15  8  1  0
 16  9  1  0
 18  9  1  0
 19 20  1  0
 20 21  1  0
 20  4  2  0
M  END
>  <program>  (47) 
Gaussian 16, Revision A.03

>  <basis>  (47) 
6-311+G(2d,2p) (5D, 7F)

>  <File Format>  (47) 
g03

$$$$
/home/yang/projects/t99_calc/v1/qchem_data/combined/log_fchk/ester.log
     RDKit          3D

 17 16  0  0  0  0  0  0  0  0999 V2000
    2.9141    0.0505    0.0000 C   0  0  0  0  0  0  0  0  0  0  0  0
    3.7230    1.1016   -0.0006 F   0  0  0  0  0  0  0  0  0  0  0  0
    3.1588   -0.6778    1.0805 F   0  0  0  0  0  0  0  0  0  0  0  0
    3.1586   -0.6790   -1.0797 F   0  0  0  0  0  0  0  0  0  0  0  0
    1.4448    0.5581   -0.0001 C   0  0  0  0  0  0  0  0  0  0  0  0
    1.2701    1.3118    1.0915 F   0  0  0  0  0  0  0  0  0  0  0  0
    1.2701    1.3114   -1.0920 F   0  0  0  0  0  0  0  0  0  0  0  0
    0.4943   -1.3195    1.0831 F   0  0  0  0  0  0  0  0  0  0  0  0
    0.4940   -1.3194   -1.0830 F   0  0  0  0  0  0  0  0  0  0  0  0
    0.3617   -0.5573    0.0001 C   0  0  0  0  0  0  0  0  0  0  0  0
   -0.8548    0.0976    0.0003 O   0  0  0  0  0  0  0  0  0  0  0  0
   -2.0005   -0.6310    0.0000 C   0  0  0  0  0  0  0  0  0  0  0  0
   -3.1940    0.3543    0.0001 C   0  0  0  0  0  0  0  0  0  0  0  0
   -3.1492    1.1287    1.0819 F   0  0  0  0  0  0  0  0  0  0  0  0
   -3.1479    1.1304   -1.0806 F   0  0  0  0  0  0  0  0  0  0  0  0
   -4.3282   -0.3192   -0.0012 F   0  0  0  0  0  0  0  0  0  0  0  0
   -2.1012   -1.8063   -0.0002 O   0  0  0  0  0  0  0  0  0  0  0  0
  1  3  1  0
  2  1  1  0
  4  1  1  0
  5  1  1  0
  5 10  1  0
  5  6  1  0
  7  5  1  0
  9 10  1  0
 10 11  1  0
 10  8  1  0
 12 13  1  0
 12 11  1  0
 13 14  1  0
 15 13  1  0
 16 13  1  0
 17 12  2  0
M  END
>  <program>  (48) 
Gaussian 16, Revision A.03

>  <basis>  (48) 
6-311+G(2d) (5D, 7F)

>  <File Format>  (48) 
g03

$$$$
/home/yang/projects/t99_calc/v1/qchem_data/combined/log_fchk/c2f4o.log
     RDKit          3D

  7  6  0  0  0  0  0  0  0  0999 V2000
    0.9472    0.1560   -0.0000 C   0  0  0  0  0  0  0  0  0  0  0  0
    1.5053   -1.0488    0.0001 F   0  0  0  0  0  0  0  0  0  0  0  0
    1.5521    1.1588    0.0001 O   0  0  0  0  0  0  0  0  0  0  0  0
   -0.5904    0.0161   -0.0002 C   0  0  0  0  0  0  0  0  0  0  0  0
   -1.1549    1.2087   -0.0006 F   0  0  0  0  0  0  0  0  0  0  0  0
   -0.9837   -0.6528   -1.0810 F   0  0  0  0  0  0  0  0  0  0  0  0
   -0.9843   -0.6518    1.0815 F   0  0  0  0  0  0  0  0  0  0  0  0
  1  3  2  0
  1  2  1  0
  4  1  1  0
  4  7  1  0
  5  4  1  0
  6  4  1  0
M  END
>  <program>  (49) 
Gaussian 16, Revision A.03

>  <basis>  (49) 
6-311+G(2d) (5D, 7F)

>  <File Format>  (49) 
g03

$$$$
Title Card Required
     RDKit          3D

 14 13  0  0  0  0  0  0  0  0999 V2000
    2.2130    0.1783    0.0000 C   0  0  0  0  0  0  0  0  0  0  0  0
    2.4375   -0.0619    1.3015 F   0  0  0  0  0  0  0  0  0  0  0  0
    2.4739   -0.9389   -0.7021 F   0  0  0  0  0  0  0  0  0  0  0  0
    0.7492    0.6101   -0.2236 C   0  0  0  0  0  0  0  0  0  0  0  0
    0.4994    1.6354    0.6104 F   0  0  0  0  0  0  0  0  0  0  0  0
    0.6586    1.0606   -1.4878 F   0  0  0  0  0  0  0  0  0  0  0  0
   -0.3207   -0.4987   -0.0179 C   0  0  0  0  0  0  0  0  0  0  0  0
   -0.0504   -1.1753    1.1071 F   0  0  0  0  0  0  0  0  0  0  0  0
   -0.2681   -1.3409   -1.0568 F   0  0  0  0  0  0  0  0  0  0  0  0
   -1.7820    0.0255    0.0916 C   0  0  0  0  0  0  0  0  0  0  0  0
   -2.6109   -1.0105    0.0633 F   0  0  0  0  0  0  0  0  0  0  0  0
   -2.0673    0.8297   -0.9259 F   0  0  0  0  0  0  0  0  0  0  0  0
   -1.9643    0.6825    1.2279 F   0  0  0  0  0  0  0  0  0  0  0  0
    2.8676    0.9833   -0.3397 H   0  0  0  0  0  0  0  0  0  0  0  0
  1  2  1  0
  1  3  1  0
  1  4  1  0
  1 14  1  0
  4  5  1  0
  4  6  1  0
  4  7  1  0
  7  8  1  0
  7  9  1  0
  7 10  1  0
 10 11  1  0
 10 12  1  0
 10 13  1  0
M  END
$$$$
Title Card Required
     RDKit          3D

 21 20  0  0  0  0  0  0  0  0999 V2000
   -2.1684   -0.4301    0.3477 C   0  0  0  0  0  0  0  0  0  0  0  0
   -2.2017   -0.3435    1.6908 F   0  0  0  0  0  0  0  0  0  0  0  0
   -2.0303   -1.7264    0.0061 F   0  0  0  0  0  0  0  0  0  0  0  0
   -3.4572    0.1081   -0.2267 C   0  0  0  0  0  0  0  0  0  0  0  0
   -3.7148    1.3418    0.2132 F   0  0  0  0  0  0  0  0  0  0  0  0
   -0.9101    0.3391   -0.1635 C   0  0  0  0  0  0  0  0  0  0  0  0
    0.4434   -0.3857    0.1227 C   0  0  0  0  0  0  0  0  0  0  0  0
    1.6796    0.5608    0.0141 C   0  0  0  0  0  0  0  0  0  0  0  0
    3.0405   -0.1856   -0.1157 C   0  0  0  0  0  0  0  0  0  0  0  0
   -0.8899    1.5497    0.4115 F   0  0  0  0  0  0  0  0  0  0  0  0
   -1.0261    0.4930   -1.4919 F   0  0  0  0  0  0  0  0  0  0  0  0
    0.5852   -1.3851   -0.7599 F   0  0  0  0  0  0  0  0  0  0  0  0
    0.4231   -0.9011    1.3581 F   0  0  0  0  0  0  0  0  0  0  0  0
    1.7387    1.3216    1.1121 F   0  0  0  0  0  0  0  0  0  0  0  0
    1.5505    1.3500   -1.0618 F   0  0  0  0  0  0  0  0  0  0  0  0
    3.1528   -0.7628   -1.3030 F   0  0  0  0  0  0  0  0  0  0  0  0
    3.1594   -1.1089    0.8307 F   0  0  0  0  0  0  0  0  0  0  0  0
   -4.2549   -0.5289   -1.0536 C   0  0  0  0  0  0  0  0  0  0  0  0
   -4.0034   -1.5216   -1.3882 H   0  0  0  0  0  0  0  0  0  0  0  0
   -5.1645   -0.0617   -1.3990 H   0  0  0  0  0  0  0  0  0  0  0  0
    4.0231    0.6960    0.0207 F   0  0  0  0  0  0  0  0  0  0  0  0
  1  2  1  0
  1  3  1  0
  1  4  1  0
  1  6  1  0
  4  5  1  0
  4 18  2  0
  6  7  1  0
  6 10  1  0
  6 11  1  0
  7  8  1  0
  7 12  1  0
  7 13  1  0
  8  9  1  0
  8 14  1  0
  8 15  1  0
  9 16  1  0
  9 17  1  0
  9 21  1  0
 18 19  1  0
 18 20  1  0
M  END
$$$$
/home/yang/projects/t99_calc/v1/qchem_data/combined/log_fchk/c2f5oh.log
     RDKit          3D

  9  8  0  0  0  0  0  0  0  0999 V2000
   -0.0248   -1.3920    1.0801 F   0  0  0  0  0  0  0  0  0  0  0  0
   -1.6680   -0.4996    0.0000 F   0  0  0  0  0  0  0  0  0  0  0  0
   -0.0248    1.3737   -1.0798 F   0  0  0  0  0  0  0  0  0  0  0  0
   -0.0248    1.3737    1.0798 F   0  0  0  0  0  0  0  0  0  0  0  0
    0.3772    0.6699    0.0000 C   0  0  0  0  0  0  0  0  0  0  0  0
   -0.3545   -0.6951    0.0000 C   0  0  0  0  0  0  0  0  0  0  0  0
   -0.0248   -1.3920   -1.0801 F   0  0  0  0  0  0  0  0  0  0  0  0
    1.7010    0.4594    0.0000 O   0  0  0  0  0  0  0  0  0  0  0  0
    2.1622    1.3030    0.0000 H   0  0  0  0  0  0  0  0  0  0  0  0
  2  6  1  0
  3  5  1  0
  5  6  1  0
  5  8  1  0
  5  4  1  0
  6  1  1  0
  7  6  1  0
  8  9  1  0
M  END
>  <program>  (52) 
Gaussian 16, Revision A.03

>  <basis>  (52) 
6-311+G(2d,2p) (5D, 7F)

>  <File Format>  (52) 
g03

$$$$
/home/yang/projects/t99_calc/v1/qchem_data/combined/log_fchk/c5_rad.log
     RDKit          3D

 16 15  0  0  0  0  0  0  0  0999 V2000
    0.2462   -0.2868   -0.0372 C   0  0  0  0  0  0  0  0  0  0  0  0
    0.4227   -0.8829   -1.2264 F   0  0  0  0  0  0  0  0  0  0  0  0
    0.1490   -1.2348    0.9059 F   0  0  0  0  0  0  0  0  0  0  0  0
    1.5152    0.5708    0.2709 C   0  0  0  0  0  0  0  0  0  0  0  0
    1.4813    1.6800   -0.4841 F   0  0  0  0  0  0  0  0  0  0  0  0
    1.4918    0.9100    1.5682 F   0  0  0  0  0  0  0  0  0  0  0  0
    2.8299   -0.1379   -0.0030 C   0  0  0  0  0  3  0  0  0  0  0  0
    3.1532   -0.2796   -1.2659 F   0  0  0  0  0  0  0  0  0  0  0  0
    3.0323   -1.2367    0.6880 F   0  0  0  0  0  0  0  0  0  0  0  0
   -1.0819    0.5276   -0.0912 C   0  0  0  0  0  0  0  0  0  0  0  0
   -2.3680   -0.3462   -0.0057 C   0  0  0  0  0  0  0  0  0  0  0  0
   -1.1240    1.2016   -1.2456 F   0  0  0  0  0  0  0  0  0  0  0  0
   -1.1171    1.3981    0.9267 F   0  0  0  0  0  0  0  0  0  0  0  0
   -2.3184   -1.3351   -0.8903 F   0  0  0  0  0  0  0  0  0  0  0  0
   -2.5123   -0.8556    1.2085 F   0  0  0  0  0  0  0  0  0  0  0  0
   -3.4196    0.4167   -0.2740 F   0  0  0  0  0  0  0  0  0  0  0  0
  1  4  1  0
  1  3  1  0
  2  1  1  0
  4  6  1  0
  5  4  1  0
  7  4  1  0
  7  9  1  0
  8  7  1  0
 10  1  1  0
 10 11  1  0
 10 13  1  0
 11 15  1  0
 12 10  1  0
 14 11  1  0
 16 11  1  0
M  RAD  1   7   2
M  END
>  <program>  (53) 
Gaussian 16, Revision A.03

>  <basis>  (53) 
6-311+G(2d,2p) (5D, 7F)

>  <File Format>  (53) 
g03

$$$$
Title Card Required
     RDKit          3D

 21 20  0  0  0  0  0  0  0  0999 V2000
    0.6682    0.4011    0.0125 C   0  0  0  0  0  0  0  0  0  0  0  0
    0.6419    1.3508   -0.9313 F   0  0  0  0  0  0  0  0  0  0  0  0
    0.7881    0.9844    1.2125 F   0  0  0  0  0  0  0  0  0  0  0  0
   -0.6750   -0.3982   -0.0180 C   0  0  0  0  0  0  0  0  0  0  0  0
   -0.6303   -1.2835   -1.0226 F   0  0  0  0  0  0  0  0  0  0  0  0
   -0.7917   -1.0601    1.1398 F   0  0  0  0  0  0  0  0  0  0  0  0
   -1.9231    0.5180   -0.2236 C   0  0  0  0  0  0  0  0  0  0  0  0
   -1.9772    0.8693   -1.5128 F   0  0  0  0  0  0  0  0  0  0  0  0
   -1.7863    1.6229    0.5249 F   0  0  0  0  0  0  0  0  0  0  0  0
    1.9194   -0.4973   -0.2403 C   0  0  0  0  0  0  0  0  0  0  0  0
    3.2663    0.1601    0.1842 C   0  0  0  0  0  0  0  0  0  0  0  0
    1.9963   -0.7717   -1.5466 F   0  0  0  0  0  0  0  0  0  0  0  0
    1.7984   -1.6435    0.4437 F   0  0  0  0  0  0  0  0  0  0  0  0
    3.3717    1.3807   -0.3272 F   0  0  0  0  0  0  0  0  0  0  0  0
    3.3633    0.2310    1.5033 F   0  0  0  0  0  0  0  0  0  0  0  0
   -3.2743   -0.1522    0.1604 C   0  0  0  0  0  0  0  0  0  0  0  0
   -3.3425   -0.3033    1.4993 F   0  0  0  0  0  0  0  0  0  0  0  0
   -3.3233   -1.3981   -0.3633 F   0  0  0  0  0  0  0  0  0  0  0  0
   -4.2674    0.6226   -0.2970 O   0  0  0  0  0  0  0  0  0  0  0  0
   -5.1098    0.2747    0.0193 H   0  0  0  0  0  0  0  0  0  0  0  0
    4.2647   -0.5839   -0.2747 F   0  0  0  0  0  0  0  0  0  0  0  0
  1  2  1  0
  1  3  1  0
  1  4  1  0
  1 10  1  0
  4  5  1  0
  4  6  1  0
  4  7  1  0
  7  8  1  0
  7  9  1  0
  7 16  1  0
 10 11  1  0
 10 12  1  0
 10 13  1  0
 11 14  1  0
 11 15  1  0
 11 21  1  0
 16 17  1  0
 16 18  1  0
 16 19  1  0
 19 20  1  0
M  END
$$$$
/home/yang/projects/t99_calc/v1/qchem_data/combined/log_fchk/cf3ccf2.log
     RDKit          3D

  8  7  0  0  0  0  0  0  0  0999 V2000
    1.1297   -0.0784    0.0001 C   0  0  0  0  0  0  0  0  0  0  0  0
   -0.2538   -0.5726   -0.0000 C   0  0  0  0  0  3  0  0  0  0  0  0
    1.8020   -0.4990    1.0761 F   0  0  0  0  0  0  0  0  0  0  0  0
    1.1583    1.2624    0.0008 F   0  0  0  0  0  0  0  0  0  0  0  0
    1.8014   -0.4975   -1.0769 F   0  0  0  0  0  0  0  0  0  0  0  0
   -1.4762   -0.1227    0.0001 C   0  0  0  0  0  0  0  0  0  0  0  0
   -1.8265    1.1410    0.0001 F   0  0  0  0  0  0  0  0  0  0  0  0
   -2.5351   -0.8910   -0.0001 F   0  0  0  0  0  0  0  0  0  0  0  0
  1  4  1  0
  1  3  1  0
  2  1  1  0
  2  6  2  0
  5  1  1  0
  6  7  1  0
  8  6  1  0
M  RAD  1   2   2
M  END
>  <program>  (55) 
Gaussian 16, Revision A.03

>  <basis>  (55) 
6-311+G(2d,2p) (5D, 7F)

>  <File Format>  (55) 
g03

$$$$
/home/yang/projects/t99_calc/v1/qchem_data/combined/log_fchk/frd_903_0HFAts_prod_minusHF.log
     RDKit          3D

 19 19  0  0  1  0  0  0  0  0999 V2000
    3.0938    0.0213    0.1799 C   0  0  0  0  0  0  0  0  0  0  0  0
    4.0484   -0.8263   -0.1784 F   0  0  0  0  0  0  0  0  0  0  0  0
    3.3460    1.2052   -0.3604 F   0  0  0  0  0  0  0  0  0  0  0  0
    3.0957    0.1369    1.5006 F   0  0  0  0  0  0  0  0  0  0  0  0
    1.7299   -0.5319   -0.3210 C   0  0  0  0  0  0  0  0  0  0  0  0
    1.7977   -0.6531   -1.6512 F   0  0  0  0  0  0  0  0  0  0  0  0
    1.5486   -1.7384    0.2269 F   0  0  0  0  0  0  0  0  0  0  0  0
    0.6368    1.5696   -0.4992 F   0  0  0  0  0  0  0  0  0  0  0  0
    0.3796    0.4855    1.3478 F   0  0  0  0  0  0  0  0  0  0  0  0
    0.4971    0.3464    0.0248 C   0  0  0  0  0  0  0  0  0  0  0  0
   -0.5941   -0.2933   -0.5004 O   0  0  0  0  0  0  0  0  0  0  0  0
   -1.8353    0.2115   -0.2359 C   0  0  1  0  0  0  0  0  0  0  0  0
   -2.1723    1.6217   -0.0451 C   0  0  0  0  0  0  0  0  0  0  0  0
   -2.3969    1.1194   -1.2550 O   0  0  0  0  0  0  0  0  0  0  0  0
   -2.2603    2.6263    0.5532 O   0  0  0  0  0  0  0  0  0  0  0  0
   -2.7856   -0.9129    0.1580 C   0  0  0  0  0  0  0  0  0  0  0  0
   -2.8632   -1.8214   -0.8081 F   0  0  0  0  0  0  0  0  0  0  0  0
   -2.3394   -1.5014    1.2626 F   0  0  0  0  0  0  0  0  0  0  0  0
   -4.0007   -0.4293    0.3876 F   0  0  0  0  0  0  0  0  0  0  0  0
  1  4  1  0
  2  1  1  0
  3  1  1  0
  5 10  1  0
  5  1  1  0
  5  7  1  0
  6  5  1  0
  8 10  1  0
 10  9  1  0
 11 10  1  0
 12 11  1  6
 12 13  1  0
 12 16  1  0
 13 15  2  0
 14 12  1  0
 14 13  1  0
 16 19  1  0
 16 18  1  0
 17 16  1  0
M  END
>  <program>  (56) 
Gaussian 16, Revision A.03

>  <basis>  (56) 
6-311+G(2d) (5D, 7F)

>  <File Format>  (56) 
g03

$$$$
/home/yang/projects/t99_calc/v1/qchem_data/combined/log_fchk/1_octane_c8_rad.log
     RDKit          3D

 25 24  0  0  0  0  0  0  0  0999 V2000
   -2.1976    0.2790   -0.1365 C   0  0  0  0  0  0  0  0  0  0  0  0
   -2.3071    0.3757   -1.4698 F   0  0  0  0  0  0  0  0  0  0  0  0
   -2.1601    1.5136    0.3843 F   0  0  0  0  0  0  0  0  0  0  0  0
   -3.4802   -0.4326    0.4035 C   0  0  0  0  0  0  0  0  0  0  0  0
   -3.3936   -1.7442    0.1304 F   0  0  0  0  0  0  0  0  0  0  0  0
   -3.5392   -0.2528    1.7310 F   0  0  0  0  0  0  0  0  0  0  0  0
   -4.7775    0.0823   -0.1946 C   0  0  0  0  0  3  0  0  0  0  0  0
   -5.0218   -0.2763   -1.4320 F   0  0  0  0  0  0  0  0  0  0  0  0
   -5.0267    1.3553    0.0124 F   0  0  0  0  0  0  0  0  0  0  0  0
   -0.8660   -0.4661    0.1985 C   0  0  0  0  0  0  0  0  0  0  0  0
    0.3959    0.4452    0.0506 C   0  0  0  0  0  0  0  0  0  0  0  0
   -0.7486   -1.5110   -0.6309 F   0  0  0  0  0  0  0  0  0  0  0  0
   -0.9197   -0.9117    1.4593 F   0  0  0  0  0  0  0  0  0  0  0  0
    0.2678    1.1923   -1.0533 F   0  0  0  0  0  0  0  0  0  0  0  0
    0.4649    1.2490    1.1189 F   0  0  0  0  0  0  0  0  0  0  0  0
    1.7254   -0.3700   -0.0597 C   0  0  0  0  0  0  0  0  0  0  0  0
    2.9933    0.4883    0.2432 C   0  0  0  0  0  0  0  0  0  0  0  0
    2.8793    1.6836   -0.3525 F   0  0  0  0  0  0  0  0  0  0  0  0
    3.0890    0.6634    1.5651 F   0  0  0  0  0  0  0  0  0  0  0  0
    1.6920   -1.3871    0.8109 F   0  0  0  0  0  0  0  0  0  0  0  0
    1.8192   -0.8623   -1.3014 F   0  0  0  0  0  0  0  0  0  0  0  0
    4.3247   -0.1548   -0.2468 C   0  0  0  0  0  0  0  0  0  0  0  0
    4.4169   -1.4110    0.1726 F   0  0  0  0  0  0  0  0  0  0  0  0
    4.4029   -0.1300   -1.5687 F   0  0  0  0  0  0  0  0  0  0  0  0
    5.3394    0.5393    0.2517 F   0  0  0  0  0  0  0  0  0  0  0  0
  1 10  1  0
  1  3  1  0
  1  4  1  0
  2  1  1  0
  4  6  1  0
  5  4  1  0
  7  9  1  0
  7  4  1  0
  8  7  1  0
 10 13  1  0
 11 10  1  0
 11 15  1  0
 12 10  1  0
 14 11  1  0
 16 11  1  0
 16 17  1  0
 16 20  1  0
 17 19  1  0
 18 17  1  0
 21 16  1  0
 22 23  1  0
 22 17  1  0
 22 25  1  0
 24 22  1  0
M  RAD  1   7   2
M  END
>  <program>  (57) 
Gaussian 16, Revision A.03

>  <basis>  (57) 
6-311+G(2d,2p) (5D, 7F)

>  <File Format>  (57) 
g03

$$$$
Title Card Required
     RDKit          3D

 27 26  0  0  0  0  0  0  0  0999 V2000
   -0.6407    0.4555   -0.1015 C   0  0  0  0  0  0  0  0  0  0  0  0
   -0.7067    1.1299   -1.2559 F   0  0  0  0  0  0  0  0  0  0  0  0
   -0.5302    1.3266    0.9099 F   0  0  0  0  0  0  0  0  0  0  0  0
   -1.9589   -0.3638    0.0927 C   0  0  0  0  0  0  0  0  0  0  0  0
   -1.8921   -1.4763   -0.6510 F   0  0  0  0  0  0  0  0  0  0  0  0
   -2.0508   -0.7079    1.3829 F   0  0  0  0  0  0  0  0  0  0  0  0
   -3.2356    0.4329   -0.3267 C   0  0  0  0  0  0  0  0  0  0  0  0
   -3.3088    0.4349   -1.6620 F   0  0  0  0  0  0  0  0  0  0  0  0
   -3.1273    1.6980    0.1069 F   0  0  0  0  0  0  0  0  0  0  0  0
    0.6359   -0.4475   -0.1337 C   0  0  0  0  0  0  0  0  0  0  0  0
    1.9528    0.3536    0.1284 C   0  0  0  0  0  0  0  0  0  0  0  0
    0.7139   -1.0291   -1.3371 F   0  0  0  0  0  0  0  0  0  0  0  0
    0.5279   -1.3953    0.8057 F   0  0  0  0  0  0  0  0  0  0  0  0
    1.8987    1.5197   -0.5282 F   0  0  0  0  0  0  0  0  0  0  0  0
    2.0475    0.5977    1.4418 F   0  0  0  0  0  0  0  0  0  0  0  0
    3.2325   -0.4079   -0.3388 C   0  0  0  0  0  0  0  0  0  0  0  0
    4.5561    0.1521    0.2618 C   0  0  0  0  0  0  0  0  0  0  0  0
    4.6256    1.4668    0.0910 F   0  0  0  0  0  0  0  0  0  0  0  0
    4.6430   -0.1243    1.5543 F   0  0  0  0  0  0  0  0  0  0  0  0
    5.5793   -0.4160   -0.3632 F   0  0  0  0  0  0  0  0  0  0  0  0
    3.1430   -1.6974    0.0154 F   0  0  0  0  0  0  0  0  0  0  0  0
    3.3230   -0.3231   -1.6700 F   0  0  0  0  0  0  0  0  0  0  0  0
   -4.5635   -0.1506    0.2373 C   0  0  0  0  0  0  0  0  0  0  0  0
   -4.6187    0.0505    1.5702 F   0  0  0  0  0  0  0  0  0  0  0  0
   -4.5785   -1.4908    0.0566 F   0  0  0  0  0  0  0  0  0  0  0  0
   -5.5823    0.4509   -0.3921 O   0  0  0  0  0  0  0  0  0  0  0  0
   -6.4119    0.1735    0.0150 H   0  0  0  0  0  0  0  0  0  0  0  0
  1  2  1  0
  1  3  1  0
  1  4  1  0
  1 10  1  0
  4  5  1  0
  4  6  1  0
  4  7  1  0
  7  8  1  0
  7  9  1  0
  7 23  1  0
 10 11  1  0
 10 12  1  0
 10 13  1  0
 11 14  1  0
 11 15  1  0
 11 16  1  0
 16 17  1  0
 16 21  1  0
 16 22  1  0
 17 18  1  0
 17 19  1  0
 17 20  1  0
 23 24  1  0
 23 25  1  0
 23 26  1  0
 26 27  1  0
M  END
$$$$
/home/yang/projects/t99_calc/v1/qchem_data/combined/log_fchk/pfeoh.log
     RDKit          3D

  9  8  0  0  0  0  0  0  0  0999 V2000
   -0.7798   -0.0184   -0.0000 C   0  0  0  0  0  0  0  0  0  0  0  0
   -1.2365   -0.6408   -1.0795 F   0  0  0  0  0  0  0  0  0  0  0  0
   -1.2362   -0.6387    1.0808 F   0  0  0  0  0  0  0  0  0  0  0  0
    0.7680   -0.0136   -0.0001 C   0  0  0  0  0  0  0  0  0  0  0  0
    1.1971    0.6751    1.0796 F   0  0  0  0  0  0  0  0  0  0  0  0
    1.1976    0.6740   -1.0800 F   0  0  0  0  0  0  0  0  0  0  0  0
    1.2108   -1.2781    0.0006 O   0  0  0  0  0  0  0  0  0  0  0  0
    2.1754   -1.2778    0.0001 H   0  0  0  0  0  0  0  0  0  0  0  0
   -1.2321    1.2299   -0.0013 F   0  0  0  0  0  0  0  0  0  0  0  0
  1  3  1  0
  2  1  1  0
  4  1  1  0
  4  7  1  0
  4  5  1  0
  6  4  1  0
  8  7  1  0
  9  1  1  0
M  END
>  <program>  (59) 
Gaussian 16, Revision A.03

>  <basis>  (59) 
6-311+G(2d) (5D, 7F)

>  <File Format>  (59) 
g03

$$$$
Title Card Required
     RDKit          3D

 23 22  0  0  0  0  0  0  0  0999 V2000
    2.9105   -0.2755   -0.0809 C   0  0  0  0  0  0  0  0  0  0  0  0
    1.5903    0.5057    0.1882 C   0  0  0  0  0  0  0  0  0  0  0  0
    0.2954   -0.3414   -0.0164 C   0  0  0  0  0  0  0  0  0  0  0  0
   -0.9942    0.5283   -0.1514 C   0  0  0  0  0  0  0  0  0  0  0  0
   -2.3331   -0.2281    0.0740 C   0  0  0  0  0  0  0  0  0  0  0  0
   -3.5428    0.5884   -0.3226 C   0  0  0  0  0  0  0  0  0  0  0  0
   -4.8486   -0.1440   -0.0332 C   0  0  0  0  0  0  0  0  0  0  0  0
    3.0622   -0.5187   -1.3745 F   0  0  0  0  0  0  0  0  0  0  0  0
    1.5774    1.5634   -0.6360 F   0  0  0  0  0  0  0  0  0  0  0  0
    0.4309   -1.0721   -1.1329 F   0  0  0  0  0  0  0  0  0  0  0  0
   -1.0026    1.0536   -1.3903 F   0  0  0  0  0  0  0  0  0  0  0  0
   -2.2780   -1.3834   -0.6366 F   0  0  0  0  0  0  0  0  0  0  0  0
   -2.3975   -0.5659    1.3839 F   0  0  0  0  0  0  0  0  0  0  0  0
   -0.9359    1.5403    0.7345 F   0  0  0  0  0  0  0  0  0  0  0  0
    0.1785   -1.1697    1.0281 F   0  0  0  0  0  0  0  0  0  0  0  0
    1.6278    0.9382    1.4537 F   0  0  0  0  0  0  0  0  0  0  0  0
    2.9191   -1.4253    0.5825 F   0  0  0  0  0  0  0  0  0  0  0  0
   -4.9016   -1.0842   -0.5793 H   0  0  0  0  0  0  0  0  0  0  0  0
   -5.6891    0.4746   -0.3424 H   0  0  0  0  0  0  0  0  0  0  0  0
   -4.9561   -0.3563    1.0287 H   0  0  0  0  0  0  0  0  0  0  0  0
   -3.4978    1.5308    0.2232 H   0  0  0  0  0  0  0  0  0  0  0  0
   -3.4548    0.8178   -1.3831 H   0  0  0  0  0  0  0  0  0  0  0  0
    3.9333    0.4636    0.3325 F   0  0  0  0  0  0  0  0  0  0  0  0
  1  2  1  0
  1  8  1  0
  1 17  1  0
  1 23  1  0
  2  3  1  0
  2  9  1  0
  2 16  1  0
  3  4  1  0
  3 10  1  0
  3 15  1  0
  4  5  1  0
  4 11  1  0
  4 14  1  0
  5  6  1  0
  5 12  1  0
  5 13  1  0
  6  7  1  0
  6 21  1  0
  6 22  1  0
  7 18  1  0
  7 19  1  0
  7 20  1  0
M  END
$$$$
/home/yang/projects/t99_calc/v1/qchem_data/combined/log_fchk/1H_hexane.log
     RDKit          3D

 20 19  0  0  0  0  0  0  0  0999 V2000
   -3.0495    0.1325    0.1846 C   0  0  0  0  0  0  0  0  0  0  0  0
   -1.6892   -0.5423   -0.1622 C   0  0  0  0  0  0  0  0  0  0  0  0
   -0.4599    0.4122   -0.0480 C   0  0  0  0  0  0  0  0  0  0  0  0
    0.9037   -0.3479    0.0120 C   0  0  0  0  0  0  0  0  0  0  0  0
    2.1289    0.5573   -0.3146 C   0  0  0  0  0  0  0  0  0  0  0  0
    3.5011   -0.0054    0.1118 C   0  0  0  0  0  0  0  0  0  0  0  0
   -3.1369    0.3815    1.4825 F   0  0  0  0  0  0  0  0  0  0  0  0
   -3.1912    1.2684   -0.4882 F   0  0  0  0  0  0  0  0  0  0  0  0
   -1.7692   -0.9935   -1.4184 F   0  0  0  0  0  0  0  0  0  0  0  0
   -1.5315   -1.5813    0.6695 F   0  0  0  0  0  0  0  0  0  0  0  0
   -0.5835    1.1502    1.0631 F   0  0  0  0  0  0  0  0  0  0  0  0
   -0.4639    1.2260   -1.1123 F   0  0  0  0  0  0  0  0  0  0  0  0
    0.8790   -1.3570   -0.8692 F   0  0  0  0  0  0  0  0  0  0  0  0
    1.0516   -0.8497    1.2446 F   0  0  0  0  0  0  0  0  0  0  0  0
    2.1799    0.7499   -1.6443 F   0  0  0  0  0  0  0  0  0  0  0  0
    1.9776    1.7514    0.2850 F   0  0  0  0  0  0  0  0  0  0  0  0
    3.6232    0.0125    1.4481 F   0  0  0  0  0  0  0  0  0  0  0  0
    3.6305   -1.2720   -0.3230 F   0  0  0  0  0  0  0  0  0  0  0  0
   -4.0314   -0.6922   -0.1561 F   0  0  0  0  0  0  0  0  0  0  0  0
    4.2824    0.6139   -0.3332 H   0  0  0  0  0  0  0  0  0  0  0  0
  1  7  1  0
  2  3  1  0
  2  1  1  0
  2 10  1  0
  3  4  1  0
  3 11  1  0
  4 14  1  0
  5  4  1  0
  5  6  1  0
  5 16  1  0
  6 17  1  0
  8  1  1  0
  9  2  1  0
 12  3  1  0
 13  4  1  0
 15  5  1  0
 18  6  1  0
 19  1  1  0
 20  6  1  0
M  END
>  <program>  (61) 
Gaussian 16, Revision A.03

>  <basis>  (61) 
6-311+G(2d,2p) (5D, 7F)

>  <File Format>  (61) 
g03

$$$$
/home/yang/projects/t99_calc/v1/qchem_data/combined/log_fchk/62rh.log
     RDKit          3D

 26 25  0  0  0  0  0  0  0  0999 V2000
    3.5528    0.1757    0.1960 C   0  0  0  0  0  0  0  0  0  0  0  0
    2.2137   -0.4908   -0.2388 C   0  0  0  0  0  0  0  0  0  0  0  0
    0.9533    0.3948    0.0135 C   0  0  0  0  0  0  0  0  0  0  0  0
   -0.3838   -0.4149   -0.0257 C   0  0  0  0  0  0  0  0  0  0  0  0
   -1.6410    0.4892   -0.2290 C   0  0  0  0  0  0  0  0  0  0  0  0
   -2.9989   -0.1672    0.1472 C   0  0  0  0  0  0  0  0  0  0  0  0
   -4.1900    0.6441   -0.3117 C   0  0  0  0  0  0  0  0  0  0  0  0
   -5.5112    0.0177    0.1212 C   0  0  0  0  0  0  0  0  0  0  0  0
    4.5603   -0.5564   -0.2631 F   0  0  0  0  0  0  0  0  0  0  0  0
    3.6504    1.4006   -0.3072 F   0  0  0  0  0  0  0  0  0  0  0  0
    2.3003   -0.7558   -1.5468 F   0  0  0  0  0  0  0  0  0  0  0  0
    0.9248    1.3496   -0.9262 F   0  0  0  0  0  0  0  0  0  0  0  0
   -0.3260   -1.2914   -1.0385 F   0  0  0  0  0  0  0  0  0  0  0  0
   -1.6827    0.8441   -1.5261 F   0  0  0  0  0  0  0  0  0  0  0  0
   -3.0219   -1.4086   -0.4014 F   0  0  0  0  0  0  0  0  0  0  0  0
   -3.0212   -0.3226    1.4923 F   0  0  0  0  0  0  0  0  0  0  0  0
   -1.5023    1.6063    0.5097 F   0  0  0  0  0  0  0  0  0  0  0  0
   -0.4921   -1.0881    1.1252 F   0  0  0  0  0  0  0  0  0  0  0  0
    1.0648    0.9744    1.2165 F   0  0  0  0  0  0  0  0  0  0  0  0
    2.1014   -1.6427    0.4367 F   0  0  0  0  0  0  0  0  0  0  0  0
    3.6440    0.2391    1.5160 F   0  0  0  0  0  0  0  0  0  0  0  0
   -5.6256   -0.9832   -0.2912 H   0  0  0  0  0  0  0  0  0  0  0  0
   -6.3380    0.6279   -0.2376 H   0  0  0  0  0  0  0  0  0  0  0  0
   -5.5822   -0.0464    1.2052 H   0  0  0  0  0  0  0  0  0  0  0  0
   -4.0835    1.6478    0.1000 H   0  0  0  0  0  0  0  0  0  0  0  0
   -4.1377    0.7259   -1.3959 H   0  0  0  0  0  0  0  0  0  0  0  0
  1 21  1  0
  2  3  1  0
  2  1  1  0
  2 20  1  0
  3 19  1  0
  4  3  1  0
  4 18  1  0
  5  4  1  0
  5  6  1  0
  5 17  1  0
  6 16  1  0
  7 25  1  0
  7  8  1  0
  7  6  1  0
  8 24  1  0
  9  1  1  0
 10  1  1  0
 11  2  1  0
 12  3  1  0
 13  4  1  0
 14  5  1  0
 15  6  1  0
 22  8  1  0
 23  8  1  0
 26  7  1  0
M  END
>  <program>  (62) 
Gaussian 16, Revision A.03

>  <basis>  (62) 
6-311+G(2d,2p) (5D, 7F)

>  <File Format>  (62) 
g03

$$$$
Title Card Required
     RDKit          3D

 15 14  0  0  0  0  0  0  0  0999 V2000
    1.4384   -0.3146    0.0000 C   0  0  0  0  0  0  0  0  0  0  0  0
    0.0803    0.4233    0.0001 C   0  0  0  0  0  0  0  0  0  0  0  0
   -1.1118   -0.4997   -0.0001 C   0  0  0  0  0  0  0  0  0  0  0  0
   -2.4318    0.2538   -0.0001 C   0  0  0  0  0  0  0  0  0  0  0  0
    0.0755    1.2302   -1.0908 F   0  0  0  0  0  0  0  0  0  0  0  0
    0.0754    1.2298    1.0911 F   0  0  0  0  0  0  0  0  0  0  0  0
    1.5424   -1.0885   -1.0807 F   0  0  0  0  0  0  0  0  0  0  0  0
    1.5423   -1.0889    1.0806 F   0  0  0  0  0  0  0  0  0  0  0  0
    2.4472    0.5467    0.0002 F   0  0  0  0  0  0  0  0  0  0  0  0
   -3.4484   -0.7307   -0.0002 O   0  0  0  0  0  0  0  0  0  0  0  0
   -4.3010   -0.2981   -0.0005 H   0  0  0  0  0  0  0  0  0  0  0  0
   -1.0549   -1.1380    0.8808 H   0  0  0  0  0  0  0  0  0  0  0  0
   -1.0548   -1.1378   -0.8812 H   0  0  0  0  0  0  0  0  0  0  0  0
   -2.4998    0.8895    0.8864 H   0  0  0  0  0  0  0  0  0  0  0  0
   -2.4998    0.8897   -0.8865 H   0  0  0  0  0  0  0  0  0  0  0  0
  1  2  1  0
  1  7  1  0
  1  8  1  0
  1  9  1  0
  2  3  1  0
  2  5  1  0
  2  6  1  0
  3  4  1  0
  3 12  1  0
  3 13  1  0
  4 10  1  0
  4 14  1  0
  4 15  1  0
 10 11  1  0
M  END
$$$$
/home/yang/projects/t99_calc/v1/qchem_data/combined/log_fchk/cfoh3.log
     RDKit          3D

  8  7  0  0  0  0  0  0  0  0999 V2000
   -0.0093    0.0202    0.0006 C   0  0  0  0  0  0  0  0  0  0  0  0
   -0.0806   -0.6781   -1.1736 F   0  0  0  0  0  0  0  0  0  0  0  0
    0.6854    1.1787   -0.1647 O   0  0  0  0  0  0  0  0  0  0  0  0
    0.6560   -0.7586    0.9233 O   0  0  0  0  0  0  0  0  0  0  0  0
    0.1951   -1.5977    0.9932 H   0  0  0  0  0  0  0  0  0  0  0  0
    1.6227    0.9735   -0.1432 H   0  0  0  0  0  0  0  0  0  0  0  0
   -1.3080    0.2882    0.3262 O   0  0  0  0  0  0  0  0  0  0  0  0
   -1.3034    0.9402    1.0297 H   0  0  0  0  0  0  0  0  0  0  0  0
  1  7  1  0
  1  4  1  0
  2  1  1  0
  3  6  1  0
  3  1  1  0
  4  5  1  0
  7  8  1  0
M  END
>  <program>  (64) 
Gaussian 16, Revision A.03

>  <basis>  (64) 
6-311+G(2d,2p) (5D, 7F)

>  <File Format>  (64) 
g03

$$$$
/home/yang/projects/t99_calc/v1/qchem_data/combined/log_fchk/cooh2.log
     RDKit          3D

  6  5  0  0  0  0  0  0  0  0999 V2000
    0.0001    0.0983    0.0001 C   0  0  0  0  0  0  0  0  0  0  0  0
    0.0004    1.2983   -0.0001 O   0  0  0  0  0  0  0  0  0  0  0  0
    1.0834   -0.6755   -0.0001 O   0  0  0  0  0  0  0  0  0  0  0  0
    1.8429   -0.0865    0.0007 H   0  0  0  0  0  0  0  0  0  0  0  0
   -1.0838   -0.6750   -0.0000 O   0  0  0  0  0  0  0  0  0  0  0  0
   -1.8429   -0.0854    0.0004 H   0  0  0  0  0  0  0  0  0  0  0  0
  2  1  2  0
  3  1  1  0
  3  4  1  0
  5  1  1  0
  5  6  1  0
M  END
>  <program>  (65) 
Gaussian 16, Revision A.03

>  <basis>  (65) 
6-311+G(2d,2p) (5D, 7F)

>  <File Format>  (65) 
g03

$$$$
Title Card Required
     RDKit          3D

 14 13  0  0  0  0  0  0  0  0999 V2000
    1.7832   -0.0767   -0.0481 C   0  0  0  0  0  0  0  0  0  0  0  0
    2.0041   -0.4999    1.1909 F   0  0  0  0  0  0  0  0  0  0  0  0
    1.9808   -1.0779   -0.8918 F   0  0  0  0  0  0  0  0  0  0  0  0
    0.3392    0.4844   -0.1775 C   0  0  0  0  0  0  0  0  0  0  0  0
    0.2827    1.6315    0.5079 F   0  0  0  0  0  0  0  0  0  0  0  0
    0.1136    0.7436   -1.4779 F   0  0  0  0  0  0  0  0  0  0  0  0
   -0.7836   -0.4642    0.3290 C   0  0  0  0  0  0  0  0  0  0  0  0
   -0.7764   -0.4736    1.6733 F   0  0  0  0  0  0  0  0  0  0  0  0
   -0.5405   -1.7017   -0.1110 F   0  0  0  0  0  0  0  0  0  0  0  0
   -2.1835   -0.0321   -0.1791 C   0  0  0  0  0  0  0  0  0  0  0  0
   -2.8135   -0.6710   -0.9597 O   0  0  0  0  0  0  0  0  0  0  0  0
   -2.5505    1.1154    0.3803 O   0  0  0  0  0  0  0  0  0  0  0  0
   -3.4198    1.3511    0.0352 H   0  0  0  0  0  0  0  0  0  0  0  0
    2.6469    0.8918   -0.3297 F   0  0  0  0  0  0  0  0  0  0  0  0
  1  2  1  0
  1  3  1  0
  1  4  1  0
  1 14  1  0
  4  5  1  0
  4  6  1  0
  4  7  1  0
  7  8  1  0
  7  9  1  0
  7 10  1  0
 10 11  2  0
 10 12  1  0
 12 13  1  0
M  END
$$$$
Title Card Required
     RDKit          3D

 11 10  0  0  0  0  0  0  0  0999 V2000
    1.0341   -0.3717   -0.0001 C   0  0  0  0  0  0  0  0  0  0  0  0
    2.2000    0.2650    0.0001 F   0  0  0  0  0  0  0  0  0  0  0  0
    0.9684   -1.1391    1.0800 F   0  0  0  0  0  0  0  0  0  0  0  0
    0.9685   -1.1387   -1.0805 F   0  0  0  0  0  0  0  0  0  0  0  0
   -0.1132    0.6697    0.0001 C   0  0  0  0  0  0  0  0  0  0  0  0
    0.0285    1.4412    1.0922 F   0  0  0  0  0  0  0  0  0  0  0  0
    0.0284    1.4415   -1.0918 F   0  0  0  0  0  0  0  0  0  0  0  0
   -1.5526    0.1241    0.0001 C   0  0  0  0  0  0  0  0  0  0  0  0
   -1.7614   -0.6297    1.0932 F   0  0  0  0  0  0  0  0  0  0  0  0
   -1.7616   -0.6291   -1.0934 F   0  0  0  0  0  0  0  0  0  0  0  0
   -2.2466    0.9669    0.0003 H   0  0  0  0  0  0  0  0  0  0  0  0
  1  2  1  0
  1  3  1  0
  1  4  1  0
  1  5  1  0
  5  6  1  0
  5  7  1  0
  5  8  1  0
  8  9  1  0
  8 10  1  0
  8 11  1  0
M  END
$$$$
/home/yang/projects/t99_calc/v1/qchem_data/combined/log_fchk/n_octane_twisted.log
     RDKit          3D

 26 25  0  0  0  0  0  0  0  0999 V2000
   -4.5589   -0.1600    0.2500 C   0  0  0  0  0  0  0  0  0  0  0  0
   -3.2335    0.4213   -0.3259 C   0  0  0  0  0  0  0  0  0  0  0  0
   -1.9556   -0.3585    0.1151 C   0  0  0  0  0  0  0  0  0  0  0  0
   -0.6380    0.4520   -0.1116 C   0  0  0  0  0  0  0  0  0  0  0  0
    0.6380   -0.4520   -0.1116 C   0  0  0  0  0  0  0  0  0  0  0  0
    1.9556    0.3585    0.1151 C   0  0  0  0  0  0  0  0  0  0  0  0
    3.2335   -0.4213   -0.3259 C   0  0  0  0  0  0  0  0  0  0  0  0
    4.5589    0.1600    0.2500 C   0  0  0  0  0  0  0  0  0  0  0  0
   -5.5800    0.4316   -0.3558 F   0  0  0  0  0  0  0  0  0  0  0  0
   -4.6278   -1.4673    0.0296 F   0  0  0  0  0  0  0  0  0  0  0  0
   -3.3198    0.3873   -1.6596 F   0  0  0  0  0  0  0  0  0  0  0  0
   -1.8979   -1.4977   -0.5866 F   0  0  0  0  0  0  0  0  0  0  0  0
   -0.7103    1.0811   -1.2909 F   0  0  0  0  0  0  0  0  0  0  0  0
    0.7103   -1.0811   -1.2909 F   0  0  0  0  0  0  0  0  0  0  0  0
    1.8979    1.4977   -0.5866 F   0  0  0  0  0  0  0  0  0  0  0  0
    3.3198   -0.3873   -1.6596 F   0  0  0  0  0  0  0  0  0  0  0  0
    4.6278    1.4673    0.0296 F   0  0  0  0  0  0  0  0  0  0  0  0
    5.5800   -0.4316   -0.3558 F   0  0  0  0  0  0  0  0  0  0  0  0
    3.1426   -1.6962    0.0774 F   0  0  0  0  0  0  0  0  0  0  0  0
    4.6481   -0.0678    1.5516 F   0  0  0  0  0  0  0  0  0  0  0  0
    2.0527    0.6537    1.4175 F   0  0  0  0  0  0  0  0  0  0  0  0
    0.5293   -1.3610    0.8652 F   0  0  0  0  0  0  0  0  0  0  0  0
   -0.5293    1.3610    0.8652 F   0  0  0  0  0  0  0  0  0  0  0  0
   -2.0527   -0.6537    1.4175 F   0  0  0  0  0  0  0  0  0  0  0  0
   -3.1426    1.6962    0.0774 F   0  0  0  0  0  0  0  0  0  0  0  0
   -4.6481    0.0679    1.5516 F   0  0  0  0  0  0  0  0  0  0  0  0
  1 26  1  0
  2 25  1  0
  2  3  1  0
  2  1  1  0
  3 24  1  0
  4  3  1  0
  4 23  1  0
  5  4  1  0
  5  6  1  0
  5 22  1  0
  6 21  1  0
  7 19  1  0
  7  6  1  0
  7  8  1  0
  8 20  1  0
  9  1  1  0
 10  1  1  0
 11  2  1  0
 12  3  1  0
 13  4  1  0
 14  5  1  0
 15  6  1  0
 16  7  1  0
 17  8  1  0
 18  8  1  0
M  END
>  <program>  (68) 
Gaussian 16, Revision C.02

>  <basis>  (68) 
6-311+G(2d) (5D, 7F)

>  <File Format>  (68) 
g03

$$$$
/home/yang/projects/t99_calc/v1/qchem_data/combined/log_fchk/c4f9oh.log
     RDKit          3D

 15 14  0  0  0  0  0  0  0  0999 V2000
   -1.9986   -0.0986    0.0699 C   0  0  0  0  0  0  0  0  0  0  0  0
   -2.1258   -0.5974    1.3169 F   0  0  0  0  0  0  0  0  0  0  0  0
   -2.1303   -1.1477   -0.7721 F   0  0  0  0  0  0  0  0  0  0  0  0
   -0.3933    1.3890    0.9111 F   0  0  0  0  0  0  0  0  0  0  0  0
   -0.5532    1.2020   -1.2542 F   0  0  0  0  0  0  0  0  0  0  0  0
    0.5800   -0.5095   -0.1148 C   0  0  0  0  0  0  0  0  0  0  0  0
    0.5810   -1.1365   -1.2969 F   0  0  0  0  0  0  0  0  0  0  0  0
    0.4025   -1.4136    0.8584 F   0  0  0  0  0  0  0  0  0  0  0  0
   -0.5841    0.5269   -0.0993 C   0  0  0  0  0  0  0  0  0  0  0  0
    1.9915    0.1167    0.0871 C   0  0  0  0  0  0  0  0  0  0  0  0
    2.1448    0.5469    1.3310 F   0  0  0  0  0  0  0  0  0  0  0  0
    2.9070   -0.8138   -0.1544 F   0  0  0  0  0  0  0  0  0  0  0  0
    2.1808    1.1295   -0.7499 F   0  0  0  0  0  0  0  0  0  0  0  0
   -2.9083    0.8557   -0.1732 O   0  0  0  0  0  0  0  0  0  0  0  0
   -3.7871    0.5154    0.0185 H   0  0  0  0  0  0  0  0  0  0  0  0
  1  2  1  0
  3  1  1  0
  5  9  1  0
  6  9  1  0
  6 10  1  0
  6  8  1  0
  7  6  1  0
  9  1  1  0
  9  4  1  0
 10 11  1  0
 12 10  1  0
 13 10  1  0
 14 15  1  0
 14  1  1  0
M  END
>  <program>  (69) 
Gaussian 16, Revision A.03

>  <basis>  (69) 
6-311+G(2d,2p) (5D, 7F)

>  <File Format>  (69) 
g03

$$$$
/home/yang/projects/t99_calc/v1/qchem_data/combined/log_fchk/cf2o_2h2oprod.log
     RDKit          3D

 10  8  0  0  0  0  0  0  0  0999 V2000
   -0.6164   -0.0483   -0.0245 C   0  0  0  0  0  0  0  0  0  0  0  0
   -0.9748    0.2186    1.2706 F   0  0  0  0  0  0  0  0  0  0  0  0
   -1.7796   -0.2848   -0.6620 F   0  0  0  0  0  0  0  0  0  0  0  0
    0.1545   -1.1249   -0.1211 O   0  0  0  0  0  0  0  0  0  0  0  0
   -0.0037    1.0667   -0.5375 O   0  0  0  0  0  0  0  0  0  0  0  0
   -0.5489    1.8307   -0.3348 H   0  0  0  0  0  0  0  0  0  0  0  0
    2.2881    0.8065   -0.2325 H   0  0  0  0  0  0  0  0  0  0  0  0
    2.6420   -0.0146    0.1196 O   0  0  0  0  0  0  0  0  0  0  0  0
    3.3216   -0.2963   -0.4933 H   0  0  0  0  0  0  0  0  0  0  0  0
    1.0847   -0.8731    0.0431 H   0  0  0  0  0  0  0  0  0  0  0  0
  1  2  1  0
  3  1  1  0
  4  1  1  0
  4 10  1  0
  5  6  1  0
  5  1  1  0
  7  8  1  0
  9  8  1  0
M  END
>  <program>  (70) 
Gaussian 16, Revision A.03

>  <basis>  (70) 
6-311+G(2d,2p) (5D, 7F)

>  <File Format>  (70) 
g03

$$$$
Title Card Required
     RDKit          3D

 18 17  0  0  0  0  0  0  0  0999 V2000
   -0.6511    0.5759   -0.0001 C   0  0  0  0  0  0  0  0  0  0  0  0
   -0.6203    1.3612    1.0916 F   0  0  0  0  0  0  0  0  0  0  0  0
   -0.6204    1.3609   -1.0921 F   0  0  0  0  0  0  0  0  0  0  0  0
    0.6173   -0.3162   -0.0001 C   0  0  0  0  0  0  0  0  0  0  0  0
    0.5545   -1.1216    1.0900 F   0  0  0  0  0  0  0  0  0  0  0  0
    0.5547   -1.1210   -1.0907 F   0  0  0  0  0  0  0  0  0  0  0  0
    1.8940    0.4880    0.0002 C   0  0  0  0  0  0  0  0  0  0  0  0
   -2.0207   -0.1567    0.0001 C   0  0  0  0  0  0  0  0  0  0  0  0
   -2.1559   -0.9140    1.0805 F   0  0  0  0  0  0  0  0  0  0  0  0
   -2.1558   -0.9149   -1.0795 F   0  0  0  0  0  0  0  0  0  0  0  0
    3.1347   -0.3876    0.0002 C   0  0  0  0  0  0  0  0  0  0  0  0
    4.2393    0.4944    0.0005 O   0  0  0  0  0  0  0  0  0  0  0  0
    5.0461   -0.0250   -0.0021 H   0  0  0  0  0  0  0  0  0  0  0  0
    3.1440   -1.0300   -0.8860 H   0  0  0  0  0  0  0  0  0  0  0  0
    3.1439   -1.0302    0.8864 H   0  0  0  0  0  0  0  0  0  0  0  0
    1.9029    1.1324   -0.8794 H   0  0  0  0  0  0  0  0  0  0  0  0
    1.9026    1.1321    0.8801 H   0  0  0  0  0  0  0  0  0  0  0  0
   -2.9900    0.7544   -0.0003 F   0  0  0  0  0  0  0  0  0  0  0  0
  1  2  1  0
  1  3  1  0
  1  4  1  0
  1  8  1  0
  4  5  1  0
  4  6  1  0
  4  7  1  0
  7 11  1  0
  7 16  1  0
  7 17  1  0
  8  9  1  0
  8 10  1  0
  8 18  1  0
 11 12  1  0
 11 14  1  0
 11 15  1  0
 12 13  1  0
M  END
$$$$
Title Card Required
     RDKit          3D

 14 13  0  0  1  0  0  0  0  0999 V2000
   -2.4404   -0.4242    1.2456 F   0  0  0  0  0  0  0  0  0  0  0  0
   -2.2551    1.3318   -0.1292 O   0  0  0  0  0  0  0  0  0  0  0  0
   -1.8441    1.8082    0.5971 H   0  0  0  0  0  0  0  0  0  0  0  0
   -2.0453    0.0046    0.0100 C   0  0  0  0  0  0  0  0  0  0  0  0
   -2.8243   -0.6229   -0.8810 F   0  0  0  0  0  0  0  0  0  0  0  0
   -0.6183   -0.4144   -0.2043 C   0  0  0  0  0  3  0  0  0  0  0  0
    0.5509    0.5085   -0.1354 C   0  0  0  0  0  0  0  0  0  0  0  0
    0.3896    1.3789    0.9036 F   0  0  0  0  0  0  0  0  0  0  0  0
    0.6519    1.2598   -1.2523 F   0  0  0  0  0  0  0  0  0  0  0  0
   -0.3843   -1.7091   -0.2153 F   0  0  0  0  0  0  0  0  0  0  0  0
    1.9148   -0.2001    0.0759 C   0  0  0  0  0  0  0  0  0  0  0  0
    2.1844   -0.9997   -0.9477 F   0  0  0  0  0  0  0  0  0  0  0  0
    1.8935   -0.9128    1.1962 F   0  0  0  0  0  0  0  0  0  0  0  0
    2.8709    0.7129    0.1686 F   0  0  0  0  0  0  0  0  0  0  0  0
  1  4  1  0
  2  3  1  0
  2  4  1  0
  4  5  1  0
  4  6  1  0
  6  7  1  0
  6 10  1  0
  7  8  1  0
  7  9  1  0
  7 11  1  0
 11 12  1  0
 11 13  1  0
 11 14  1  0
M  RAD  1   6   2
M  END
$$$$
Title Card Required
     RDKit          3D

 23 22  0  0  0  0  0  0  0  0999 V2000
    0.2374    0.4963    0.0956 C   0  0  0  0  0  0  0  0  0  0  0  0
    0.2807    1.0398    1.3186 F   0  0  0  0  0  0  0  0  0  0  0  0
    0.1812    1.4727   -0.8182 F   0  0  0  0  0  0  0  0  0  0  0  0
    1.5434   -0.3269   -0.1355 C   0  0  0  0  0  0  0  0  0  0  0  0
    1.4333   -1.5079    0.4858 F   0  0  0  0  0  0  0  0  0  0  0  0
    1.6882   -0.5417   -1.4543 F   0  0  0  0  0  0  0  0  0  0  0  0
    2.8337    0.3861    0.3700 C   0  0  0  0  0  0  0  0  0  0  0  0
    2.9115    0.2698    1.7062 F   0  0  0  0  0  0  0  0  0  0  0  0
    2.7708    1.6810    0.0500 F   0  0  0  0  0  0  0  0  0  0  0  0
    4.1111   -0.2140   -0.2736 C   0  0  0  0  0  0  0  0  0  0  0  0
    4.8032    0.3931   -1.0264 O   0  0  0  0  0  0  0  0  0  0  0  0
    4.3009   -1.4613    0.1422 O   0  0  0  0  0  0  0  0  0  0  0  0
    5.0982   -1.7998   -0.2821 H   0  0  0  0  0  0  0  0  0  0  0  0
   -1.0583   -0.3717   -0.0105 C   0  0  0  0  0  0  0  0  0  0  0  0
   -1.1887   -1.0816    1.1175 F   0  0  0  0  0  0  0  0  0  0  0  0
   -0.9387   -1.2157   -1.0442 F   0  0  0  0  0  0  0  0  0  0  0  0
   -2.3483    0.4799   -0.2257 C   0  0  0  0  0  0  0  0  0  0  0  0
   -2.3909    0.8835   -1.4995 F   0  0  0  0  0  0  0  0  0  0  0  0
   -2.3175    1.5535    0.5759 F   0  0  0  0  0  0  0  0  0  0  0  0
   -3.6702   -0.2888    0.0711 C   0  0  0  0  0  0  0  0  0  0  0  0
   -3.6842   -1.4539   -0.5655 F   0  0  0  0  0  0  0  0  0  0  0  0
   -3.8121   -0.5011    1.3708 F   0  0  0  0  0  0  0  0  0  0  0  0
   -4.6916    0.4437   -0.3533 F   0  0  0  0  0  0  0  0  0  0  0  0
  1  2  1  0
  1  3  1  0
  1  4  1  0
  1 14  1  0
  4  5  1  0
  4  6  1  0
  4  7  1  0
  7  8  1  0
  7  9  1  0
  7 10  1  0
 10 11  2  0
 10 12  1  0
 12 13  1  0
 14 15  1  0
 14 16  1  0
 14 17  1  0
 17 18  1  0
 17 19  1  0
 17 20  1  0
 20 21  1  0
 20 22  1  0
 20 23  1  0
M  END
$$$$
/home/yang/projects/t99_calc/v1/qchem_data/combined/log_fchk/hexane1H.log
     RDKit          3D

 20 19  0  0  0  0  0  0  0  0999 V2000
   -0.4599    0.4121    0.0480 C   0  0  0  0  0  0  0  0  0  0  0  0
   -0.4638    1.2260    1.1122 F   0  0  0  0  0  0  0  0  0  0  0  0
   -0.5835    1.1502   -1.0631 F   0  0  0  0  0  0  0  0  0  0  0  0
    0.9038   -0.3480   -0.0121 C   0  0  0  0  0  0  0  0  0  0  0  0
    0.8792   -1.3573    0.8689 F   0  0  0  0  0  0  0  0  0  0  0  0
    1.0518   -0.8495   -1.2448 F   0  0  0  0  0  0  0  0  0  0  0  0
    2.1288    0.5573    0.3146 C   0  0  0  0  0  0  0  0  0  0  0  0
    2.1797    0.7497    1.6443 F   0  0  0  0  0  0  0  0  0  0  0  0
    1.9773    1.7513   -0.2849 F   0  0  0  0  0  0  0  0  0  0  0  0
    3.5011   -0.0052   -0.1118 C   0  0  0  0  0  0  0  0  0  0  0  0
    3.6230    0.0123   -1.4481 F   0  0  0  0  0  0  0  0  0  0  0  0
    3.6309   -1.2717    0.3233 F   0  0  0  0  0  0  0  0  0  0  0  0
    4.2823    0.6144    0.3330 H   0  0  0  0  0  0  0  0  0  0  0  0
   -1.6893   -0.5423    0.1622 C   0  0  0  0  0  0  0  0  0  0  0  0
   -3.0495    0.1326   -0.1845 C   0  0  0  0  0  0  0  0  0  0  0  0
   -3.1369    0.3818   -1.4824 F   0  0  0  0  0  0  0  0  0  0  0  0
   -3.1911    1.2683    0.4885 F   0  0  0  0  0  0  0  0  0  0  0  0
   -1.7693   -0.9935    1.4184 F   0  0  0  0  0  0  0  0  0  0  0  0
   -1.5317   -1.5813   -0.6696 F   0  0  0  0  0  0  0  0  0  0  0  0
   -4.0315   -0.6923    0.1561 F   0  0  0  0  0  0  0  0  0  0  0  0
  1 14  1  0
  1  2  1  0
  3  1  1  0
  4  1  1  0
  4  7  1  0
  4  5  1  0
  6  4  1  0
  7  8  1  0
  9  7  1  0
 10  7  1  0
 10 12  1  0
 10 13  1  0
 11 10  1  0
 14 18  1  0
 15 20  1  0
 15 14  1  0
 15 17  1  0
 16 15  1  0
 19 14  1  0
M  END
>  <program>  (74) 
Gaussian 16, Revision A.03

>  <basis>  (74) 
6-311+G(2d,2p) (5D, 7F)

>  <File Format>  (74) 
g03

$$$$
Title Card Required
     RDKit          3D

 32 31  0  0  0  0  0  0  0  0999 V2000
    3.4710   -0.2713   -0.2107 C   0  0  0  0  0  0  0  0  0  0  0  0
    3.5633   -0.0786   -1.5324 F   0  0  0  0  0  0  0  0  0  0  0  0
    3.3986   -1.5867    0.0346 F   0  0  0  0  0  0  0  0  0  0  0  0
    4.7584    0.2831    0.4698 C   0  0  0  0  0  0  0  0  0  0  0  0
    4.6725    1.6213    0.5700 F   0  0  0  0  0  0  0  0  0  0  0  0
    4.8490   -0.2337    1.7076 F   0  0  0  0  0  0  0  0  0  0  0  0
    6.0825   -0.0443   -0.2522 C   0  0  0  0  0  0  0  0  0  0  0  0
    6.1792    0.6486   -1.3974 F   0  0  0  0  0  0  0  0  0  0  0  0
    6.1378   -1.3596   -0.5301 F   0  0  0  0  0  0  0  0  0  0  0  0
    2.1601    0.4126    0.2968 C   0  0  0  0  0  0  0  0  0  0  0  0
    0.8754   -0.4174   -0.0296 C   0  0  0  0  0  0  0  0  0  0  0  0
    2.0588    1.6164   -0.2811 F   0  0  0  0  0  0  0  0  0  0  0  0
    2.2351    0.5685    1.6247 F   0  0  0  0  0  0  0  0  0  0  0  0
    0.9783   -0.9129   -1.2689 F   0  0  0  0  0  0  0  0  0  0  0  0
    0.7914   -1.4293    0.8432 F   0  0  0  0  0  0  0  0  0  0  0  0
   -0.4341    0.4338    0.0532 C   0  0  0  0  0  0  0  0  0  0  0  0
   -1.7212   -0.4458    0.1797 C   0  0  0  0  0  0  0  0  0  0  0  0
   -1.6139   -1.4988   -0.6401 F   0  0  0  0  0  0  0  0  0  0  0  0
   -1.8154   -0.8801    1.4425 F   0  0  0  0  0  0  0  0  0  0  0  0
   -0.3663    1.2379    1.1215 F   0  0  0  0  0  0  0  0  0  0  0  0
   -0.5251    1.1807   -1.0542 F   0  0  0  0  0  0  0  0  0  0  0  0
    6.9111    0.2238    0.4063 H   0  0  0  0  0  0  0  0  0  0  0  0
   -3.0265    0.3321   -0.1889 C   0  0  0  0  0  0  0  0  0  0  0  0
   -3.1058    0.4199   -1.5227 F   0  0  0  0  0  0  0  0  0  0  0  0
   -2.9640    1.5670    0.3259 F   0  0  0  0  0  0  0  0  0  0  0  0
   -4.3187   -0.3557    0.3526 C   0  0  0  0  0  0  0  0  0  0  0  0
   -5.6304    0.1401   -0.3256 C   0  0  0  0  0  0  0  0  0  0  0  0
   -4.2386   -1.6792    0.1576 F   0  0  0  0  0  0  0  0  0  0  0  0
   -4.4208   -0.1099    1.6628 F   0  0  0  0  0  0  0  0  0  0  0  0
   -5.7088   -0.2919   -1.5751 F   0  0  0  0  0  0  0  0  0  0  0  0
   -5.6856    1.4665   -0.3178 F   0  0  0  0  0  0  0  0  0  0  0  0
   -6.6654   -0.3360    0.3540 F   0  0  0  0  0  0  0  0  0  0  0  0
  1  2  1  0
  1  3  1  0
  1  4  1  0
  1 10  1  0
  4  5  1  0
  4  6  1  0
  4  7  1  0
  7  8  1  0
  7  9  1  0
  7 22  1  0
 10 11  1  0
 10 12  1  0
 10 13  1  0
 11 14  1  0
 11 15  1  0
 11 16  1  0
 16 17  1  0
 16 20  1  0
 16 21  1  0
 17 18  1  0
 17 19  1  0
 17 23  1  0
 23 24  1  0
 23 25  1  0
 23 26  1  0
 26 27  1  0
 26 28  1  0
 26 29  1  0
 27 30  1  0
 27 31  1  0
 27 32  1  0
M  END
$$$$
Title Card Required
     RDKit          3D

 24 23  0  0  0  0  0  0  0  0999 V2000
    2.8426    0.3438    0.3820 C   0  0  0  0  0  0  0  0  0  0  0  0
    2.8522    0.1823    1.7184 F   0  0  0  0  0  0  0  0  0  0  0  0
    2.7974    1.6631    0.1110 F   0  0  0  0  0  0  0  0  0  0  0  0
    4.0994   -0.2497   -0.2089 C   0  0  0  0  0  0  0  0  0  0  0  0
    4.2663   -1.5203    0.1654 F   0  0  0  0  0  0  0  0  0  0  0  0
    1.5422   -0.3086   -0.1837 C   0  0  0  0  0  0  0  0  0  0  0  0
    0.2369    0.4912    0.1287 C   0  0  0  0  0  0  0  0  0  0  0  0
   -1.0587   -0.3661   -0.0458 C   0  0  0  0  0  0  0  0  0  0  0  0
   -2.3507    0.4986   -0.1834 C   0  0  0  0  0  0  0  0  0  0  0  0
    1.4317   -1.5441    0.3245 F   0  0  0  0  0  0  0  0  0  0  0  0
    1.6669   -0.3981   -1.5170 F   0  0  0  0  0  0  0  0  0  0  0  0
    0.1741    1.5424   -0.7004 F   0  0  0  0  0  0  0  0  0  0  0  0
    0.2781    0.9341    1.3909 F   0  0  0  0  0  0  0  0  0  0  0  0
   -1.1850   -1.1680    1.0195 F   0  0  0  0  0  0  0  0  0  0  0  0
   -0.9449   -1.1204   -1.1470 F   0  0  0  0  0  0  0  0  0  0  0  0
   -2.3991    1.0089   -1.4186 F   0  0  0  0  0  0  0  0  0  0  0  0
   -2.3199    1.5010    0.7057 F   0  0  0  0  0  0  0  0  0  0  0  0
    4.9495    0.3742   -0.9923 C   0  0  0  0  0  0  0  0  0  0  0  0
   -3.6706   -0.2945    0.0514 C   0  0  0  0  0  0  0  0  0  0  0  0
   -3.6874   -1.4000   -0.6835 F   0  0  0  0  0  0  0  0  0  0  0  0
   -4.6946    0.4713   -0.3037 F   0  0  0  0  0  0  0  0  0  0  0  0
   -3.8073   -0.6183    1.3284 F   0  0  0  0  0  0  0  0  0  0  0  0
    4.7710    1.3984   -1.2750 H   0  0  0  0  0  0  0  0  0  0  0  0
    5.8294   -0.1355   -1.3540 H   0  0  0  0  0  0  0  0  0  0  0  0
  1  2  1  0
  1  3  1  0
  1  4  1  0
  1  6  1  0
  4  5  1  0
  4 18  2  0
  6  7  1  0
  6 10  1  0
  6 11  1  0
  7  8  1  0
  7 12  1  0
  7 13  1  0
  8  9  1  0
  8 14  1  0
  8 15  1  0
  9 16  1  0
  9 17  1  0
  9 19  1  0
 18 23  1  0
 18 24  1  0
 19 20  1  0
 19 21  1  0
 19 22  1  0
M  END
$$$$
/home/yang/projects/t99_calc/v1/qchem_data/combined/log_fchk/cbutane.log
     RDKit          3D

 12 12  0  0  0  0  0  0  0  0999 V2000
   -1.0412   -0.0000   -0.2254 C   0  0  0  0  0  0  0  0  0  0  0  0
   -1.1918   -0.0000   -1.5670 F   0  0  0  0  0  0  0  0  0  0  0  0
   -2.2933   -0.0000    0.2794 F   0  0  0  0  0  0  0  0  0  0  0  0
    0.0000    1.0412    0.2254 C   0  0  0  0  0  0  0  0  0  0  0  0
    0.0000    2.2933   -0.2794 F   0  0  0  0  0  0  0  0  0  0  0  0
    0.0000    1.1918    1.5670 F   0  0  0  0  0  0  0  0  0  0  0  0
    1.0412   -0.0000   -0.2254 C   0  0  0  0  0  0  0  0  0  0  0  0
    2.2933   -0.0000    0.2794 F   0  0  0  0  0  0  0  0  0  0  0  0
    1.1918    0.0000   -1.5670 F   0  0  0  0  0  0  0  0  0  0  0  0
   -0.0000   -1.0412    0.2254 C   0  0  0  0  0  0  0  0  0  0  0  0
   -0.0000   -2.2933   -0.2794 F   0  0  0  0  0  0  0  0  0  0  0  0
   -0.0000   -1.1918    1.5670 F   0  0  0  0  0  0  0  0  0  0  0  0
  1  4  1  0
  1 10  1  0
  1  3  1  0
  2  1  1  0
  4  6  1  0
  5  4  1  0
  7  4  1  0
  7 10  1  0
  7  8  1  0
  9  7  1  0
 10 12  1  0
 11 10  1  0
M  END
>  <program>  (77) 
Gaussian 16, Revision A.03

>  <basis>  (77) 
6-311+G(2d) (5D, 7F)

>  <File Format>  (77) 
g03

$$$$
/home/yang/projects/t99_calc/v1/qchem_data/combined/log_fchk/heptane.log
     RDKit          3D

 23 22  0  0  0  0  0  0  0  0999 V2000
   -3.9115   -0.2498   -0.1390 C   0  0  0  0  0  0  0  0  0  0  0  0
   -4.9298    0.3902    0.4202 F   0  0  0  0  0  0  0  0  0  0  0  0
   -4.0495   -0.1987   -1.4551 F   0  0  0  0  0  0  0  0  0  0  0  0
   -3.9335   -1.5178    0.2536 F   0  0  0  0  0  0  0  0  0  0  0  0
   -2.5864    0.4365    0.3076 C   0  0  0  0  0  0  0  0  0  0  0  0
   -2.5462    1.6482   -0.2637 F   0  0  0  0  0  0  0  0  0  0  0  0
   -2.6296    0.5781    1.6362 F   0  0  0  0  0  0  0  0  0  0  0  0
   -1.3005   -0.3628   -0.0712 C   0  0  0  0  0  0  0  0  0  0  0  0
   -1.4298   -0.8306   -1.3192 F   0  0  0  0  0  0  0  0  0  0  0  0
   -1.1879   -1.3972    0.7721 F   0  0  0  0  0  0  0  0  0  0  0  0
   -0.0000    0.5019    0.0000 C   0  0  0  0  0  0  0  0  0  0  0  0
   -0.0503    1.2780    1.0896 F   0  0  0  0  0  0  0  0  0  0  0  0
    0.0502    1.2780   -1.0895 F   0  0  0  0  0  0  0  0  0  0  0  0
    1.3005   -0.3628    0.0713 C   0  0  0  0  0  0  0  0  0  0  0  0
    2.5864    0.4365   -0.3076 C   0  0  0  0  0  0  0  0  0  0  0  0
    3.9115   -0.2498    0.1390 C   0  0  0  0  0  0  0  0  0  0  0  0
    1.4298   -0.8306    1.3192 F   0  0  0  0  0  0  0  0  0  0  0  0
    1.1878   -1.3972   -0.7721 F   0  0  0  0  0  0  0  0  0  0  0  0
    2.6295    0.5780   -1.6362 F   0  0  0  0  0  0  0  0  0  0  0  0
    3.9335   -1.5178   -0.2536 F   0  0  0  0  0  0  0  0  0  0  0  0
    4.0496   -0.1986    1.4551 F   0  0  0  0  0  0  0  0  0  0  0  0
    2.5462    1.6482    0.2635 F   0  0  0  0  0  0  0  0  0  0  0  0
    4.9298    0.3902   -0.4203 F   0  0  0  0  0  0  0  0  0  0  0  0
  1  4  1  0
  1  5  1  0
  1  2  1  0
  3  1  1  0
  5  7  1  0
  6  5  1  0
  8 11  1  0
  8  5  1  0
  8 10  1  0
  9  8  1  0
 11 14  1  0
 11 12  1  0
 13 11  1  0
 14 17  1  0
 15 14  1  0
 15 16  1  0
 15 22  1  0
 16 21  1  0
 18 14  1  0
 19 15  1  0
 20 16  1  0
 23 16  1  0
M  END
>  <program>  (78) 
Gaussian 16, Revision A.03

>  <basis>  (78) 
6-311+G(2d) (5D, 7F)

>  <File Format>  (78) 
g03

$$$$
Title Card Required
     RDKit          3D

 20 19  0  0  0  0  0  0  0  0999 V2000
    3.2699   -0.1659    0.1720 C   0  0  0  0  0  0  0  0  0  0  0  0
    1.9215    0.5062   -0.2234 C   0  0  0  0  0  0  0  0  0  0  0  0
    0.6713   -0.3999    0.0033 C   0  0  0  0  0  0  0  0  0  0  0  0
   -0.6713    0.3999    0.0031 C   0  0  0  0  0  0  0  0  0  0  0  0
   -1.9215   -0.5062   -0.2235 C   0  0  0  0  0  0  0  0  0  0  0  0
   -3.2699    0.1659    0.1721 C   0  0  0  0  0  0  0  0  0  0  0  0
    3.3709   -0.2836    1.4873 F   0  0  0  0  0  0  0  0  0  0  0  0
    3.3710   -1.3676   -0.3831 F   0  0  0  0  0  0  0  0  0  0  0  0
    1.9909    0.8263   -1.5194 F   0  0  0  0  0  0  0  0  0  0  0  0
    1.8009    1.6271    0.5014 F   0  0  0  0  0  0  0  0  0  0  0  0
    0.7910   -1.0231    1.1825 F   0  0  0  0  0  0  0  0  0  0  0  0
    0.6373   -1.3171   -0.9719 F   0  0  0  0  0  0  0  0  0  0  0  0
   -0.6371    1.3168   -0.9722 F   0  0  0  0  0  0  0  0  0  0  0  0
   -0.7912    1.0233    1.1822 F   0  0  0  0  0  0  0  0  0  0  0  0
   -1.9912   -0.8262   -1.5196 F   0  0  0  0  0  0  0  0  0  0  0  0
   -1.8009   -1.6271    0.5012 F   0  0  0  0  0  0  0  0  0  0  0  0
   -3.3707    0.2833    1.4875 F   0  0  0  0  0  0  0  0  0  0  0  0
   -3.3708    1.3677   -0.3827 F   0  0  0  0  0  0  0  0  0  0  0  0
    4.2661    0.5934   -0.2644 F   0  0  0  0  0  0  0  0  0  0  0  0
   -4.2662   -0.5932   -0.2644 F   0  0  0  0  0  0  0  0  0  0  0  0
  1  2  1  0
  1  7  1  0
  1  8  1  0
  1 19  1  0
  2  3  1  0
  2  9  1  0
  2 10  1  0
  3  4  1  0
  3 11  1  0
  3 12  1  0
  4  5  1  0
  4 13  1  0
  4 14  1  0
  5  6  1  0
  5 15  1  0
  5 16  1  0
  6 17  1  0
  6 18  1  0
  6 20  1  0
M  END
$$$$
Title Card Required
     RDKit          3D

 17 16  0  0  0  0  0  0  0  0999 V2000
   -1.6506   -0.2435   -0.0001 C   0  0  0  0  0  0  0  0  0  0  0  0
   -0.3406    0.5902    0.0001 C   0  0  0  0  0  0  0  0  0  0  0  0
    0.9921   -0.2016    0.0001 C   0  0  0  0  0  0  0  0  0  0  0  0
    2.2099    0.6946   -0.0003 C   0  0  0  0  0  0  0  0  0  0  0  0
    3.5095   -0.1029   -0.0003 C   0  0  0  0  0  0  0  0  0  0  0  0
   -1.7279   -1.0095    1.0797 F   0  0  0  0  0  0  0  0  0  0  0  0
   -0.3707    1.3770    1.0919 F   0  0  0  0  0  0  0  0  0  0  0  0
    0.9898   -1.0076    1.0909 F   0  0  0  0  0  0  0  0  0  0  0  0
    0.9895   -1.0083   -1.0901 F   0  0  0  0  0  0  0  0  0  0  0  0
   -0.3705    1.3770   -1.0918 F   0  0  0  0  0  0  0  0  0  0  0  0
   -1.7279   -1.0089   -1.0803 F   0  0  0  0  0  0  0  0  0  0  0  0
    3.5843   -0.7348    0.8827 H   0  0  0  0  0  0  0  0  0  0  0  0
    4.3565    0.5807   -0.0003 H   0  0  0  0  0  0  0  0  0  0  0  0
    3.5843   -0.7349   -0.8833 H   0  0  0  0  0  0  0  0  0  0  0  0
    2.1483    1.3348   -0.8795 H   0  0  0  0  0  0  0  0  0  0  0  0
    2.1486    1.3352    0.8787 H   0  0  0  0  0  0  0  0  0  0  0  0
   -2.6872    0.5910    0.0002 F   0  0  0  0  0  0  0  0  0  0  0  0
  1  2  1  0
  1  6  1  0
  1 11  1  0
  1 17  1  0
  2  3  1  0
  2  7  1  0
  2 10  1  0
  3  4  1  0
  3  8  1  0
  3  9  1  0
  4  5  1  0
  4 15  1  0
  4 16  1  0
  5 12  1  0
  5 13  1  0
  5 14  1  0
M  END
$$$$
/home/yang/projects/t99_calc/v1/qchem_data/combined/log_fchk/c2f3_o.log
     RDKit          3D

  6  5  0  0  0  0  0  0  0  0999 V2000
    0.6429    0.0093    0.0004 C   0  0  0  0  0  3  0  0  0  0  0  0
    1.2672   -1.1287    0.0002 F   0  0  0  0  0  0  0  0  0  0  0  0
    1.4228    1.0426   -0.0004 F   0  0  0  0  0  0  0  0  0  0  0  0
   -1.3747   -1.0578   -0.0004 F   0  0  0  0  0  0  0  0  0  0  0  0
   -0.7765    0.1446    0.0002 C   0  0  0  0  0  0  0  0  0  0  0  0
   -1.3795    1.1714    0.0003 O   0  0  0  0  0  0  0  0  0  0  0  0
  2  1  1  0
  3  1  1  0
  4  5  1  0
  5  6  2  0
  5  1  1  0
M  RAD  1   1   2
M  END
>  <program>  (81) 
Gaussian 16, Revision C.02

>  <basis>  (81) 
6-311+G(2d,2p) (5D, 7F)

>  <File Format>  (81) 
g03

$$$$
/home/yang/projects/t99_calc/v1/qchem_data/combined/log_fchk/43_ftca.log
     RDKit          3D

 23 22  0  0  0  0  0  0  0  0999 V2000
    0.7496    0.5070    0.1692 C   0  0  0  0  0  0  0  0  0  0  0  0
    0.7228    0.8544    1.4776 F   0  0  0  0  0  0  0  0  0  0  0  0
    0.6867    1.6531   -0.5525 F   0  0  0  0  0  0  0  0  0  0  0  0
    2.0156   -0.2580   -0.1468 C   0  0  0  0  0  0  0  0  0  0  0  0
    3.2576    0.5529    0.2195 C   0  0  0  0  0  0  0  0  0  0  0  0
    4.5469   -0.1700   -0.0749 C   0  0  0  0  0  0  0  0  0  0  0  0
    5.5190    0.3294   -0.5675 O   0  0  0  0  0  0  0  0  0  0  0  0
    4.5095   -1.4611    0.3064 O   0  0  0  0  0  0  0  0  0  0  0  0
    5.3739   -1.8389    0.1091 H   0  0  0  0  0  0  0  0  0  0  0  0
   -0.5336   -0.3167   -0.1290 C   0  0  0  0  0  0  0  0  0  0  0  0
   -1.8693    0.4842   -0.0719 C   0  0  0  0  0  0  0  0  0  0  0  0
   -0.5884   -1.3301    0.7547 F   0  0  0  0  0  0  0  0  0  0  0  0
   -0.4266   -0.8421   -1.3632 F   0  0  0  0  0  0  0  0  0  0  0  0
   -1.8799    1.2876    0.9995 F   0  0  0  0  0  0  0  0  0  0  0  0
   -1.9671    1.2315   -1.1781 F   0  0  0  0  0  0  0  0  0  0  0  0
   -3.1446   -0.4066    0.0068 C   0  0  0  0  0  0  0  0  0  0  0  0
   -3.1300   -1.3345   -0.9432 F   0  0  0  0  0  0  0  0  0  0  0  0
   -3.2357   -0.9985    1.1892 F   0  0  0  0  0  0  0  0  0  0  0  0
    3.2895    1.4981   -0.3153 H   0  0  0  0  0  0  0  0  0  0  0  0
    3.2536    0.7749    1.2884 H   0  0  0  0  0  0  0  0  0  0  0  0
    1.9923   -1.1962    0.4046 H   0  0  0  0  0  0  0  0  0  0  0  0
    2.0102   -0.4952   -1.2092 H   0  0  0  0  0  0  0  0  0  0  0  0
   -4.2129    0.3623   -0.1646 F   0  0  0  0  0  0  0  0  0  0  0  0
  1  2  1  0
  3  1  1  0
  4  1  1  0
  4  5  1  0
  4 21  1  0
  5 20  1  0
  6  5  1  0
  6  8  1  0
  7  6  2  0
  9  8  1  0
 10 11  1  0
 10  1  1  0
 10 12  1  0
 11 16  1  0
 11 14  1  0
 13 10  1  0
 15 11  1  0
 16 18  1  0
 17 16  1  0
 19  5  1  0
 22  4  1  0
 23 16  1  0
M  END
>  <program>  (82) 
Gaussian 16, Revision C.02

>  <basis>  (82) 
6-311+G(2d,2p) (5D, 7F)

>  <File Format>  (82) 
g03

$$$$
/home/yang/projects/t99_calc/v1/qchem_data/combined/log_fchk/1H_pentane.log
     RDKit          3D

 17 16  0  0  0  0  0  0  0  0999 V2000
    2.3814   -0.3257    0.0019 C   0  0  0  0  0  0  0  0  0  0  0  0
    3.4174    0.4321   -0.3358 F   0  0  0  0  0  0  0  0  0  0  0  0
    2.5512   -0.7431    1.2476 F   0  0  0  0  0  0  0  0  0  0  0  0
    2.3373   -1.3764   -0.8081 F   0  0  0  0  0  0  0  0  0  0  0  0
    1.0811    0.5212   -0.1284 C   0  0  0  0  0  0  0  0  0  0  0  0
    1.1153    1.4606    0.8277 F   0  0  0  0  0  0  0  0  0  0  0  0
    1.1020    1.1148   -1.3267 F   0  0  0  0  0  0  0  0  0  0  0  0
   -0.2347   -0.3066   -0.0010 C   0  0  0  0  0  0  0  0  0  0  0  0
   -0.1047   -1.1801    1.0073 F   0  0  0  0  0  0  0  0  0  0  0  0
   -0.4114   -0.9870   -1.1412 F   0  0  0  0  0  0  0  0  0  0  0  0
   -1.4945    0.5685    0.2691 C   0  0  0  0  0  0  0  0  0  0  0  0
   -1.4484    1.6713   -0.4986 F   0  0  0  0  0  0  0  0  0  0  0  0
   -1.4862    0.9459    1.5597 F   0  0  0  0  0  0  0  0  0  0  0  0
   -2.8504   -0.1209    0.0101 C   0  0  0  0  0  0  0  0  0  0  0  0
   -2.8803   -1.3163    0.6270 F   0  0  0  0  0  0  0  0  0  0  0  0
   -3.0426   -0.3033   -1.3055 F   0  0  0  0  0  0  0  0  0  0  0  0
   -3.6434    0.5146    0.4090 H   0  0  0  0  0  0  0  0  0  0  0  0
  1  3  1  0
  2  1  1  0
  4  1  1  0
  5  8  1  0
  5  1  1  0
  5  6  1  0
  7  5  1  0
  8 11  1  0
  8  9  1  0
 10  8  1  0
 11 13  1  0
 12 11  1  0
 14 11  1  0
 14 17  1  0
 14 15  1  0
 16 14  1  0
M  END
>  <program>  (83) 
Gaussian 16, Revision C.02

>  <basis>  (83) 
6-311+G(2d,2p) (5D, 7F)

>  <File Format>  (83) 
g03

$$$$
/home/yang/projects/t99_calc/v1/qchem_data/combined/log_fchk/c3f7oh.log
     RDKit          3D

 12 11  0  0  0  0  0  0  0  0999 V2000
    1.3086   -0.2370    0.0000 C   0  0  0  0  0  0  0  0  0  0  0  0
    1.3818   -1.0035   -1.0800 F   0  0  0  0  0  0  0  0  0  0  0  0
    1.3817   -1.0035    1.0800 F   0  0  0  0  0  0  0  0  0  0  0  0
    0.0004    0.6019   -0.0000 C   0  0  0  0  0  0  0  0  0  0  0  0
    0.0194    1.3783   -1.0916 F   0  0  0  0  0  0  0  0  0  0  0  0
    2.3435    0.5959    0.0000 F   0  0  0  0  0  0  0  0  0  0  0  0
   -1.3504   -1.0237   -1.0793 F   0  0  0  0  0  0  0  0  0  0  0  0
   -1.3506   -1.0234    1.0795 F   0  0  0  0  0  0  0  0  0  0  0  0
   -1.3210   -0.2120    0.0000 C   0  0  0  0  0  0  0  0  0  0  0  0
   -2.3445    0.6535   -0.0002 O   0  0  0  0  0  0  0  0  0  0  0  0
   -3.1748    0.1682    0.0002 H   0  0  0  0  0  0  0  0  0  0  0  0
    0.0193    1.3784    1.0915 F   0  0  0  0  0  0  0  0  0  0  0  0
  1  6  1  0
  1  3  1  0
  2  1  1  0
  4  9  1  0
  4  1  1  0
  4 12  1  0
  5  4  1  0
  7  9  1  0
  9  8  1  0
 10  9  1  0
 10 11  1  0
M  END
>  <program>  (84) 
Gaussian 16, Revision A.03

>  <basis>  (84) 
6-311+G(2d,2p) (5D, 7F)

>  <File Format>  (84) 
g03

$$$$
/home/yang/projects/t99_calc/v1/qchem_data/combined/log_fchk/propene.log
     RDKit          3D

  9  8  0  0  0  0  0  0  0  0999 V2000
   -0.2585    0.5240    0.0000 C   0  0  0  0  0  0  0  0  0  0  0  0
   -1.3862   -0.1661   -0.0000 C   0  0  0  0  0  0  0  0  0  0  0  0
   -0.2898    1.8526    0.0000 F   0  0  0  0  0  0  0  0  0  0  0  0
   -1.4324   -1.4703   -0.0000 F   0  0  0  0  0  0  0  0  0  0  0  0
   -2.5705    0.3765    0.0000 F   0  0  0  0  0  0  0  0  0  0  0  0
    1.1122   -0.1095    0.0000 C   0  0  0  0  0  0  0  0  0  0  0  0
    2.0427    0.8384   -0.0000 F   0  0  0  0  0  0  0  0  0  0  0  0
    1.3025   -0.8814   -1.0753 F   0  0  0  0  0  0  0  0  0  0  0  0
    1.3025   -0.8814    1.0753 F   0  0  0  0  0  0  0  0  0  0  0  0
  1  6  1  0
  1  3  1  0
  2  1  2  0
  2  5  1  0
  4  2  1  0
  6  9  1  0
  7  6  1  0
  8  6  1  0
M  END
>  <program>  (85) 
Gaussian 16, Revision A.03

>  <basis>  (85) 
6-311+G(2d) (5D, 7F)

>  <File Format>  (85) 
g03

$$$$
Title Card Required
     RDKit          3D

 14 13  0  0  0  0  0  0  0  0999 V2000
   -1.7822    0.0252    0.0914 C   0  0  0  0  0  0  0  0  0  0  0  0
   -2.6111   -1.0107    0.0600 F   0  0  0  0  0  0  0  0  0  0  0  0
   -1.9653    0.6795    1.2291 F   0  0  0  0  0  0  0  0  0  0  0  0
   -2.0668    0.8318   -0.9244 F   0  0  0  0  0  0  0  0  0  0  0  0
   -0.3208   -0.4986   -0.0185 C   0  0  0  0  0  0  0  0  0  0  0  0
   -0.0507   -1.1769    1.1055 F   0  0  0  0  0  0  0  0  0  0  0  0
   -0.2678   -1.3392   -1.0587 F   0  0  0  0  0  0  0  0  0  0  0  0
    0.7492    0.6106   -0.2222 C   0  0  0  0  0  0  0  0  0  0  0  0
    0.4991    1.6345    0.6134 F   0  0  0  0  0  0  0  0  0  0  0  0
    0.6587    1.0628   -1.4857 F   0  0  0  0  0  0  0  0  0  0  0  0
    2.2125    0.1780    0.0015 C   0  0  0  0  0  0  0  0  0  0  0  0
    2.4757   -0.9351   -0.7053 F   0  0  0  0  0  0  0  0  0  0  0  0
    2.4369   -0.0663    1.3019 F   0  0  0  0  0  0  0  0  0  0  0  0
    2.8688    0.9850   -0.3341 H   0  0  0  0  0  0  0  0  0  0  0  0
  1  2  1  0
  1  3  1  0
  1  4  1  0
  1  5  1  0
  5  6  1  0
  5  7  1  0
  5  8  1  0
  8  9  1  0
  8 10  1  0
  8 11  1  0
 11 12  1  0
 11 13  1  0
 11 14  1  0
M  END
$$$$
/home/yang/projects/t99_calc/v1/qchem_data/combined/log_fchk/cfoh_cis.log
     RDKit          3D

  4  3  0  0  0  0  0  0  0  0999 V2000
   -0.0105    0.6269    0.0001 C   0  0  0  0  0  2  0  0  0  0  0  0
    1.0471   -0.1964   -0.0000 F   0  0  0  0  0  0  0  0  0  0  0  0
   -0.8469   -1.0659    0.0005 H   0  0  0  0  0  0  0  0  0  0  0  0
   -1.0642   -0.1160   -0.0001 O   0  0  0  0  0  0  0  0  0  0  0  0
  2  1  1  0
  4  1  1  0
  4  3  1  0
M  RAD  1   1   3
M  END
>  <program>  (87) 
Gaussian 16, Revision A.03

>  <basis>  (87) 
6-311+G(2d,2p) (5D, 7F)

>  <File Format>  (87) 
g03

$$$$
Title Card Required
     RDKit          3D

 20 19  0  0  0  0  0  0  0  0999 V2000
    0.4430   -0.3940    0.0915 C   0  0  0  0  0  0  0  0  0  0  0  0
    0.4214   -1.0235    1.2737 F   0  0  0  0  0  0  0  0  0  0  0  0
    0.5790   -1.3016   -0.8834 F   0  0  0  0  0  0  0  0  0  0  0  0
   -0.9121    0.3536   -0.1094 C   0  0  0  0  0  0  0  0  0  0  0  0
   -0.8913    1.4954    0.5896 F   0  0  0  0  0  0  0  0  0  0  0  0
   -1.0503    0.6463   -1.4138 F   0  0  0  0  0  0  0  0  0  0  0  0
   -2.1590   -0.4749    0.3232 C   0  0  0  0  0  0  0  0  0  0  0  0
   -2.2625   -0.4553    1.6625 F   0  0  0  0  0  0  0  0  0  0  0  0
   -2.0055   -1.7382   -0.0816 F   0  0  0  0  0  0  0  0  0  0  0  0
   -3.4645    0.0824   -0.3022 C   0  0  0  0  0  0  0  0  0  0  0  0
   -4.1019   -0.5149   -1.1092 O   0  0  0  0  0  0  0  0  0  0  0  0
   -3.7454    1.2814    0.1959 O   0  0  0  0  0  0  0  0  0  0  0  0
   -4.5575    1.5947   -0.2196 H   0  0  0  0  0  0  0  0  0  0  0  0
    1.6781    0.5596    0.0706 C   0  0  0  0  0  0  0  0  0  0  0  0
    1.7413    1.2107    1.2366 F   0  0  0  0  0  0  0  0  0  0  0  0
    1.5407    1.4490   -0.9232 F   0  0  0  0  0  0  0  0  0  0  0  0
    3.0385   -0.1695   -0.1377 C   0  0  0  0  0  0  0  0  0  0  0  0
    4.0212    0.6946    0.0827 F   0  0  0  0  0  0  0  0  0  0  0  0
    3.1460   -0.6256   -1.3765 F   0  0  0  0  0  0  0  0  0  0  0  0
    3.1592   -1.1818    0.7124 F   0  0  0  0  0  0  0  0  0  0  0  0
  1  2  1  0
  1  3  1  0
  1  4  1  0
  1 14  1  0
  4  5  1  0
  4  6  1  0
  4  7  1  0
  7  8  1  0
  7  9  1  0
  7 10  1  0
 10 11  2  0
 10 12  1  0
 12 13  1  0
 14 15  1  0
 14 16  1  0
 14 17  1  0
 17 18  1  0
 17 19  1  0
 17 20  1  0
M  END
$$$$
/home/yang/projects/t99_calc/v1/qchem_data/combined/log_fchk/32_pentene.log
     RDKit          3D

 15 14  0  0  0  0  0  0  0  0999 V2000
   -1.0291    0.4525   -0.1239 C   0  0  0  0  0  0  0  0  0  0  0  0
   -0.7611    1.4279   -1.0285 F   0  0  0  0  0  0  0  0  0  0  0  0
   -1.0906    1.0304    1.0942 F   0  0  0  0  0  0  0  0  0  0  0  0
   -2.3118   -0.2306   -0.4830 C   0  0  0  0  0  0  0  0  0  0  0  0
    0.1734   -0.5306   -0.1181 C   0  0  0  0  0  0  0  0  0  0  0  0
    1.5791    0.0877    0.1124 C   0  0  0  0  0  0  0  0  0  0  0  0
    0.2077   -1.1647   -1.3055 F   0  0  0  0  0  0  0  0  0  0  0  0
   -0.0298   -1.4397    0.8483 F   0  0  0  0  0  0  0  0  0  0  0  0
    1.6254    0.7466    1.2630 F   0  0  0  0  0  0  0  0  0  0  0  0
    1.9028    0.9141   -0.8726 F   0  0  0  0  0  0  0  0  0  0  0  0
   -3.2798   -0.4429    0.3890 C   0  0  0  0  0  0  0  0  0  0  0  0
   -3.1912   -0.1334    1.4210 H   0  0  0  0  0  0  0  0  0  0  0  0
   -4.1946   -0.9325    0.0871 H   0  0  0  0  0  0  0  0  0  0  0  0
   -2.3841   -0.5411   -1.5160 H   0  0  0  0  0  0  0  0  0  0  0  0
    2.4766   -0.8935    0.1509 F   0  0  0  0  0  0  0  0  0  0  0  0
  1  5  1  0
  1  3  1  0
  2  1  1  0
  4  1  1  0
  4 11  2  0
  5  6  1  0
  5  8  1  0
  6 15  1  0
  6  9  1  0
  7  5  1  0
 10  6  1  0
 11 12  1  0
 13 11  1  0
 14  4  1  0
M  END
>  <program>  (89) 
Gaussian 16, Revision A.03

>  <basis>  (89) 
6-311+G(2d,2p) (5D, 7F)

>  <File Format>  (89) 
g03

$$$$
Title Card Required
     RDKit          3D

 14 13  0  0  1  0  0  0  0  0999 V2000
    2.5989   -0.8212    0.8048 F   0  0  0  0  0  0  0  0  0  0  0  0
    2.1872    0.1329    0.0041 C   0  0  0  0  0  3  0  0  0  0  0  0
    2.5609   -0.0790   -1.2403 F   0  0  0  0  0  0  0  0  0  0  0  0
   -0.3115   -0.4657   -0.0750 C   0  0  0  0  0  0  0  0  0  0  0  0
   -0.1770   -1.4296    0.8471 F   0  0  0  0  0  0  0  0  0  0  0  0
   -0.0870   -1.0001   -1.2870 F   0  0  0  0  0  0  0  0  0  0  0  0
    0.6677    0.9607    1.5253 F   0  0  0  0  0  0  0  0  0  0  0  0
   -1.7919    0.0125   -0.0432 C   0  0  0  0  0  0  0  0  0  0  0  0
   -2.0659    0.7877   -1.0814 F   0  0  0  0  0  0  0  0  0  0  0  0
   -2.0499    0.6766    1.0761 F   0  0  0  0  0  0  0  0  0  0  0  0
   -2.5835   -1.0550   -0.0955 F   0  0  0  0  0  0  0  0  0  0  0  0
    0.7621    0.6280    0.1996 C   0  0  1  0  0  0  0  0  0  0  0  0
    0.4911    1.6852   -0.6088 O   0  0  0  0  0  0  0  0  0  0  0  0
    1.2196    2.3109   -0.5860 H   0  0  0  0  0  0  0  0  0  0  0  0
  1  2  1  0
  2  3  1  0
  2 12  1  0
  4  5  1  0
  4  6  1  0
  4  8  1  0
  4 12  1  0
  8  9  1  0
  8 10  1  0
  8 11  1  0
 12  7  1  1
 12 13  1  0
 13 14  1  0
M  RAD  1   2   2
M  END
$$$$
/home/yang/projects/t99_calc/v1/qchem_data/combined/log_fchk/c2f5.log
     RDKit          3D

  7  6  0  0  0  0  0  0  0  0999 V2000
    0.6098    0.0001   -0.0199 C   0  0  0  0  0  0  0  0  0  0  0  0
    0.8187   -0.0009    1.3022 F   0  0  0  0  0  0  0  0  0  0  0  0
    1.1848   -1.0829   -0.5300 F   0  0  0  0  0  0  0  0  0  0  0  0
    1.1844    1.0840   -0.5284 F   0  0  0  0  0  0  0  0  0  0  0  0
   -0.8693   -0.0000   -0.3565 C   0  0  0  0  0  3  0  0  0  0  0  0
   -1.5073   -1.0905    0.0036 F   0  0  0  0  0  0  0  0  0  0  0  0
   -1.5076    1.0903    0.0036 F   0  0  0  0  0  0  0  0  0  0  0  0
  1  2  1  0
  3  1  1  0
  4  1  1  0
  5  1  1  0
  5  6  1  0
  5  7  1  0
M  RAD  1   5   2
M  END
>  <program>  (91) 
Gaussian 16, Revision A.03

>  <basis>  (91) 
6-311+G(2d) (5D, 7F)

>  <File Format>  (91) 
g03

$$$$
/home/yang/projects/t99_calc/v1/qchem_data/combined/log_fchk/e1_minusH.log
     RDKit          3D

 17 16  0  0  1  0  0  0  0  0999 V2000
    2.9105   -0.0981   -0.1555 C   0  0  0  0  0  0  0  0  0  0  0  0
    3.8095   -0.7135    0.6010 F   0  0  0  0  0  0  0  0  0  0  0  0
    2.9386   -0.6276   -1.3707 F   0  0  0  0  0  0  0  0  0  0  0  0
    3.2257    1.1874   -0.2350 F   0  0  0  0  0  0  0  0  0  0  0  0
    1.5101   -0.2822    0.4935 C   0  0  0  0  0  0  0  0  0  0  0  0
    1.2672   -1.5947    0.5814 F   0  0  0  0  0  0  0  0  0  0  0  0
    1.5554    0.2442    1.7228 F   0  0  0  0  0  0  0  0  0  0  0  0
    0.2464   -0.1257   -1.5087 F   0  0  0  0  0  0  0  0  0  0  0  0
    0.5361    1.6943   -0.3903 F   0  0  0  0  0  0  0  0  0  0  0  0
    0.3350    0.3791   -0.2759 C   0  0  0  0  0  0  0  0  0  0  0  0
   -0.8025    0.1110    0.4451 O   0  0  0  0  0  0  0  0  0  0  0  0
   -1.9684    0.6068   -0.0257 C   0  0  0  0  0  3  0  0  0  0  0  0
   -3.1022   -0.3892   -0.0675 C   0  0  0  0  0  0  0  0  0  0  0  0
   -2.2996    1.7839    0.4685 F   0  0  0  0  0  0  0  0  0  0  0  0
   -2.7338   -1.4593   -0.7629 F   0  0  0  0  0  0  0  0  0  0  0  0
   -3.4549   -0.7926    1.1597 F   0  0  0  0  0  0  0  0  0  0  0  0
   -4.1672    0.1606   -0.6408 F   0  0  0  0  0  0  0  0  0  0  0  0
  1  5  1  0
  1  2  1  0
  3  1  1  0
  4  1  1  0
  5  6  1  0
  5  7  1  0
  8 10  1  0
  9 10  1  0
 10 11  1  0
 10  5  1  0
 12 11  1  0
 12 14  1  0
 13 12  1  0
 13 16  1  0
 15 13  1  0
 17 13  1  0
M  RAD  1  12   2
M  END
>  <program>  (92) 
Gaussian 16, Revision C.02

>  <basis>  (92) 
6-311+G(2d) (5D, 7F)

>  <File Format>  (92) 
g03

$$$$
/home/yang/projects/t99_calc/v1/qchem_data/combined/log_fchk/c3f6o2_ring.log
     RDKit          3D

 11 11  0  0  1  0  0  0  0  0999 V2000
   -0.0171   -0.5447   -0.0295 C   0  0  2  0  0  0  0  0  0  0  0  0
   -1.3254    0.2602   -0.0708 C   0  0  0  0  0  0  0  0  0  0  0  0
    0.0484   -1.5327   -0.9275 F   0  0  0  0  0  0  0  0  0  0  0  0
   -2.1984   -0.1250   -0.9856 F   0  0  0  0  0  0  0  0  0  0  0  0
   -1.2438    1.5811   -0.1080 F   0  0  0  0  0  0  0  0  0  0  0  0
   -0.3924   -0.9944    1.2450 O   0  0  0  0  0  0  0  0  0  0  0  0
   -1.6347   -0.2230    1.2032 O   0  0  0  0  0  0  0  0  0  0  0  0
    1.3331    0.1940   -0.0221 C   0  0  0  0  0  0  0  0  0  0  0  0
    1.3370    1.1574    0.8873 F   0  0  0  0  0  0  0  0  0  0  0  0
    1.5584    0.7262   -1.2194 F   0  0  0  0  0  0  0  0  0  0  0  0
    2.3066   -0.6645    0.2588 F   0  0  0  0  0  0  0  0  0  0  0  0
  1  3  1  6
  1  8  1  0
  1  6  1  0
  2  1  1  0
  2  7  1  0
  4  2  1  0
  5  2  1  0
  7  6  1  0
  8 11  1  0
  8  9  1  0
 10  8  1  0
M  END
>  <program>  (93) 
Gaussian 16, Revision A.03

>  <basis>  (93) 
6-311+G(2d) (5D, 7F)

>  <File Format>  (93) 
g03

$$$$
/home/yang/projects/t99_calc/v1/qchem_data/combined/log_fchk/53_ftca.log
     RDKit          3D

 26 25  0  0  0  0  0  0  0  0999 V2000
   -1.4487   -0.4681    0.2144 C   0  0  0  0  0  0  0  0  0  0  0  0
   -1.4425   -0.7445    1.5397 F   0  0  0  0  0  0  0  0  0  0  0  0
   -1.3360   -1.6484   -0.4438 F   0  0  0  0  0  0  0  0  0  0  0  0
   -2.7286    0.2409   -0.1692 C   0  0  0  0  0  0  0  0  0  0  0  0
   -3.9552   -0.5852    0.2149 C   0  0  0  0  0  0  0  0  0  0  0  0
   -5.2569    0.0828   -0.1472 C   0  0  0  0  0  0  0  0  0  0  0  0
   -6.2017   -0.4698   -0.6358 O   0  0  0  0  0  0  0  0  0  0  0  0
   -5.2655    1.3924    0.1666 O   0  0  0  0  0  0  0  0  0  0  0  0
   -6.1347    1.7341   -0.0709 H   0  0  0  0  0  0  0  0  0  0  0  0
   -0.1835    0.3778   -0.1015 C   0  0  0  0  0  0  0  0  0  0  0  0
    1.1736   -0.3848    0.0186 C   0  0  0  0  0  0  0  0  0  0  0  0
   -0.1733    1.4317    0.7346 F   0  0  0  0  0  0  0  0  0  0  0  0
   -0.2847    0.8385   -1.3612 F   0  0  0  0  0  0  0  0  0  0  0  0
    1.1594   -1.1665    1.1046 F   0  0  0  0  0  0  0  0  0  0  0  0
    1.3203   -1.1574   -1.0673 F   0  0  0  0  0  0  0  0  0  0  0  0
    2.4055    0.5677    0.1289 C   0  0  0  0  0  0  0  0  0  0  0  0
    3.7711   -0.1225   -0.1616 C   0  0  0  0  0  0  0  0  0  0  0  0
    3.8959   -1.2335    0.5540 F   0  0  0  0  0  0  0  0  0  0  0  0
    3.8882   -0.4177   -1.4477 F   0  0  0  0  0  0  0  0  0  0  0  0
    4.7478    0.7126    0.1713 F   0  0  0  0  0  0  0  0  0  0  0  0
    2.2757    1.5799   -0.7409 F   0  0  0  0  0  0  0  0  0  0  0  0
    2.4578    1.0622    1.3707 F   0  0  0  0  0  0  0  0  0  0  0  0
   -3.9481   -1.5586   -0.2674 H   0  0  0  0  0  0  0  0  0  0  0  0
   -3.9696   -0.7480    1.2943 H   0  0  0  0  0  0  0  0  0  0  0  0
   -2.7443    1.2079    0.3303 H   0  0  0  0  0  0  0  0  0  0  0  0
   -2.7062    0.4203   -1.2426 H   0  0  0  0  0  0  0  0  0  0  0  0
  1  2  1  0
  3  1  1  0
  4  1  1  0
  4  5  1  0
  4 25  1  0
  5 24  1  0
  6  8  1  0
  6  5  1  0
  7  6  2  0
  9  8  1  0
 10 11  1  0
 10  1  1  0
 10 12  1  0
 11 16  1  0
 11 14  1  0
 13 10  1  0
 15 11  1  0
 16 22  1  0
 17 16  1  0
 17 20  1  0
 17 18  1  0
 19 17  1  0
 21 16  1  0
 23  5  1  0
 26  4  1  0
M  END
>  <program>  (94) 
Gaussian 16, Revision A.03

>  <basis>  (94) 
6-311+G(2d,2p) (5D, 7F)

>  <File Format>  (94) 
g03

$$$$
/home/yang/projects/t99_calc/v1/qchem_data/combined/log_fchk/c3f7.log
     RDKit          3D

 10  9  0  0  0  0  0  0  0  0999 V2000
   -1.0280   -0.3820    0.0002 C   0  0  0  0  0  0  0  0  0  0  0  0
   -2.2080    0.2232    0.0001 F   0  0  0  0  0  0  0  0  0  0  0  0
   -0.9381   -1.1499   -1.0799 F   0  0  0  0  0  0  0  0  0  0  0  0
   -0.9378   -1.1492    1.0808 F   0  0  0  0  0  0  0  0  0  0  0  0
    0.1138    0.6729   -0.0003 C   0  0  0  0  0  0  0  0  0  0  0  0
   -0.0378    1.4312   -1.0968 F   0  0  0  0  0  0  0  0  0  0  0  0
   -0.0377    1.4321    1.0955 F   0  0  0  0  0  0  0  0  0  0  0  0
    1.8763   -0.5293   -1.0893 F   0  0  0  0  0  0  0  0  0  0  0  0
    1.8765   -0.5280    1.0897 F   0  0  0  0  0  0  0  0  0  0  0  0
    1.5238    0.1138   -0.0001 C   0  0  0  0  0  3  0  0  0  0  0  0
  1  4  1  0
  2  1  1  0
  3  1  1  0
  5 10  1  0
  5  1  1  0
  5  7  1  0
  6  5  1  0
  8 10  1  0
 10  9  1  0
M  RAD  1  10   2
M  END
>  <program>  (95) 
Gaussian 16, Revision C.02

>  <basis>  (95) 
6-311+G(2d,2p) (5D, 7F)

>  <File Format>  (95) 
g03

$$$$
c4f8 geom opt
     RDKit          3D

 12 11  0  0  0  0  0  0  0  0999 V2000
    1.9481   -0.2308   -0.0878 C   0  0  0  0  0  0  0  0  0  0  0  0
    0.8927    0.5366    0.1415 C   0  0  0  0  0  0  0  0  0  0  0  0
    1.9954   -1.5182    0.1006 F   0  0  0  0  0  0  0  0  0  0  0  0
    3.0749    0.2411   -0.5426 F   0  0  0  0  0  0  0  0  0  0  0  0
    0.9727    1.8400   -0.1221 F   0  0  0  0  0  0  0  0  0  0  0  0
   -0.4460    0.0832    0.6552 C   0  0  0  0  0  0  0  0  0  0  0  0
   -1.4890   -0.1530   -0.4685 C   0  0  0  0  0  0  0  0  0  0  0  0
   -0.3304   -1.0688    1.3370 F   0  0  0  0  0  0  0  0  0  0  0  0
   -2.6576   -0.5023    0.0488 F   0  0  0  0  0  0  0  0  0  0  0  0
   -1.0666   -1.1263   -1.2724 F   0  0  0  0  0  0  0  0  0  0  0  0
   -0.9444    1.0237    1.4770 F   0  0  0  0  0  0  0  0  0  0  0  0
   -1.6478    0.9535   -1.1867 F   0  0  0  0  0  0  0  0  0  0  0  0
  1  2  2  0
  1  3  1  0
  1  4  1  0
  2  5  1  0
  2  6  1  0
  6  7  1  0
  6  8  1  0
  6 11  1  0
  7  9  1  0
  7 10  1  0
  7 12  1  0
M  END
$$$$
/home/yang/projects/t99_calc/v1/qchem_data/combined/log_fchk/c8_secondary_rad.log
     RDKit          3D

 25 24  0  0  1  0  0  0  0  0999 V2000
    0.8564    0.0570    0.3187 C   0  0  0  0  0  0  0  0  0  0  0  0
    0.9043   -1.2777    0.2006 F   0  0  0  0  0  0  0  0  0  0  0  0
    0.9312    0.3783    1.6191 F   0  0  0  0  0  0  0  0  0  0  0  0
    2.1241    0.6359   -0.3836 C   0  0  0  0  0  0  0  0  0  0  0  0
    2.2104    0.1203   -1.6198 F   0  0  0  0  0  0  0  0  0  0  0  0
    1.9835    1.9731   -0.4717 F   0  0  0  0  0  0  0  0  0  0  0  0
    3.3805    0.3178    0.3742 C   0  0  0  0  0  3  0  0  0  0  0  0
    3.7270    1.1650    1.3129 F   0  0  0  0  0  0  0  0  0  0  0  0
   -0.5000    0.5842   -0.2455 C   0  0  0  0  0  0  0  0  0  0  0  0
   -0.4328    0.6265   -1.5816 F   0  0  0  0  0  0  0  0  0  0  0  0
   -0.6959    1.8237    0.2215 F   0  0  0  0  0  0  0  0  0  0  0  0
    4.4257   -0.6753   -0.0384 C   0  0  0  0  0  0  0  0  0  0  0  0
    5.2328   -0.1879   -0.9913 F   0  0  0  0  0  0  0  0  0  0  0  0
    5.1842   -0.9893    1.0090 F   0  0  0  0  0  0  0  0  0  0  0  0
    3.8631   -1.7843   -0.5110 F   0  0  0  0  0  0  0  0  0  0  0  0
   -1.7163   -0.3110    0.1580 C   0  0  0  0  0  0  0  0  0  0  0  0
   -1.5835   -0.6806    1.4388 F   0  0  0  0  0  0  0  0  0  0  0  0
   -1.7103   -1.4056   -0.6133 F   0  0  0  0  0  0  0  0  0  0  0  0
   -3.0887    0.4148    0.0008 C   0  0  0  0  0  0  0  0  0  0  0  0
   -3.2428    1.2686    1.0179 F   0  0  0  0  0  0  0  0  0  0  0  0
   -3.1068    1.0962   -1.1530 F   0  0  0  0  0  0  0  0  0  0  0  0
   -4.3152   -0.5455   -0.0018 C   0  0  0  0  0  0  0  0  0  0  0  0
   -5.4223    0.1801    0.0849 F   0  0  0  0  0  0  0  0  0  0  0  0
   -4.2612   -1.3718    1.0359 F   0  0  0  0  0  0  0  0  0  0  0  0
   -4.3585   -1.2532   -1.1204 F   0  0  0  0  0  0  0  0  0  0  0  0
  1  3  1  0
  2  1  1  0
  4  1  1  0
  4  7  1  0
  5  4  1  0
  6  4  1  0
  7  8  1  0
  9 16  1  0
  9 11  1  0
  9  1  1  0
 10  9  1  0
 12  7  1  0
 12 14  1  0
 13 12  1  0
 15 12  1  0
 16 17  1  0
 18 16  1  0
 19 16  1  0
 19 20  1  0
 21 19  1  0
 22 19  1  0
 22 23  1  0
 22 24  1  0
 25 22  1  0
M  RAD  1   7   2
M  END
>  <program>  (97) 
Gaussian 16, Revision A.03

>  <basis>  (97) 
6-311+G(2d,2p) (5D, 7F)

>  <File Format>  (97) 
g03

$$$$
Title Card Required
     RDKit          3D

 21 20  0  0  0  0  0  0  0  0999 V2000
   -0.0043   -0.4110   -0.0658 C   0  0  0  0  0  0  0  0  0  0  0  0
    0.0415   -1.1563   -1.1845 F   0  0  0  0  0  0  0  0  0  0  0  0
   -0.1227   -1.2412    0.9870 F   0  0  0  0  0  0  0  0  0  0  0  0
    1.3415    0.3532    0.0771 C   0  0  0  0  0  0  0  0  0  0  0  0
    1.3452    1.3596   -0.8341 F   0  0  0  0  0  0  0  0  0  0  0  0
    1.3582    0.9276    1.3047 F   0  0  0  0  0  0  0  0  0  0  0  0
    2.5414   -0.5431   -0.1073 C   0  0  0  0  0  0  0  0  0  0  0  0
   -1.2754    0.4867   -0.1510 C   0  0  0  0  0  0  0  0  0  0  0  0
   -2.6120   -0.2749    0.0913 C   0  0  0  0  0  0  0  0  0  0  0  0
   -1.3371    1.0275   -1.3742 F   0  0  0  0  0  0  0  0  0  0  0  0
   -1.2095    1.4694    0.7569 F   0  0  0  0  0  0  0  0  0  0  0  0
   -2.6841   -1.3565   -0.6759 F   0  0  0  0  0  0  0  0  0  0  0  0
   -2.7283   -0.6360    1.3613 F   0  0  0  0  0  0  0  0  0  0  0  0
    3.8537    0.1878    0.1167 C   0  0  0  0  0  0  0  0  0  0  0  0
    4.8769   -0.7576   -0.1229 O   0  0  0  0  0  0  0  0  0  0  0  0
    5.7257   -0.3324    0.0169 H   0  0  0  0  0  0  0  0  0  0  0  0
    3.9040    0.5715    1.1403 H   0  0  0  0  0  0  0  0  0  0  0  0
    3.9340    1.0373   -0.5695 H   0  0  0  0  0  0  0  0  0  0  0  0
    2.4655   -1.3799    0.5889 H   0  0  0  0  0  0  0  0  0  0  0  0
    2.5221   -0.9527   -1.1169 H   0  0  0  0  0  0  0  0  0  0  0  0
   -3.6227    0.5309   -0.2125 F   0  0  0  0  0  0  0  0  0  0  0  0
  1  2  1  0
  1  3  1  0
  1  4  1  0
  1  8  1  0
  4  5  1  0
  4  6  1  0
  4  7  1  0
  7 14  1  0
  7 19  1  0
  7 20  1  0
  8  9  1  0
  8 10  1  0
  8 11  1  0
  9 12  1  0
  9 13  1  0
  9 21  1  0
 14 15  1  0
 14 17  1  0
 14 18  1  0
 15 16  1  0
M  END
$$$$
/home/yang/projects/t99_calc/v1/qchem_data/combined/log_fchk/pfbal.log
     RDKit          3D

 13 12  0  0  0  0  0  0  0  0999 V2000
    1.7792   -0.0838   -0.0421 C   0  0  0  0  0  0  0  0  0  0  0  0
    0.3369    0.4797   -0.1832 C   0  0  0  0  0  0  0  0  0  0  0  0
   -0.7904   -0.4681    0.3163 C   0  0  0  0  0  0  0  0  0  0  0  0
   -2.1813   -0.0195   -0.1904 C   0  0  0  0  0  0  0  0  0  0  0  0
    0.1151    0.7348   -1.4842 F   0  0  0  0  0  0  0  0  0  0  0  0
    0.2707    1.6258    0.5010 F   0  0  0  0  0  0  0  0  0  0  0  0
    1.9771   -1.0882   -0.8812 F   0  0  0  0  0  0  0  0  0  0  0  0
    1.9879   -0.5039    1.1997 F   0  0  0  0  0  0  0  0  0  0  0  0
   -2.8541   -0.6026   -0.9504 O   0  0  0  0  0  0  0  0  0  0  0  0
   -0.5631   -1.7034   -0.1336 F   0  0  0  0  0  0  0  0  0  0  0  0
   -0.7991   -0.4836    1.6578 F   0  0  0  0  0  0  0  0  0  0  0  0
   -2.5256    1.1332    0.3722 F   0  0  0  0  0  0  0  0  0  0  0  0
    2.6444    0.8821   -0.3207 F   0  0  0  0  0  0  0  0  0  0  0  0
  1  8  1  0
  2  1  1  0
  2  3  1  0
  2  6  1  0
  3 11  1  0
  4  3  1  0
  4 12  1  0
  5  2  1  0
  7  1  1  0
  9  4  2  0
 10  3  1  0
 13  1  1  0
M  END
>  <program>  (99) 
Gaussian 16, Revision A.03

>  <basis>  (99) 
6-311+G(2d,2p) (5D, 7F)

>  <File Format>  (99) 
g03

$$$$
/home/yang/projects/t99_calc/v1/qchem_data/combined/log_fchk/pfboh.log
     RDKit          3D

 15 14  0  0  0  0  0  0  0  0999 V2000
    1.9913    0.1165    0.0873 C   0  0  0  0  0  0  0  0  0  0  0  0
    2.1811    1.1297   -0.7489 F   0  0  0  0  0  0  0  0  0  0  0  0
    2.1445    0.5457    1.3315 F   0  0  0  0  0  0  0  0  0  0  0  0
    0.5798   -0.5095   -0.1153 C   0  0  0  0  0  0  0  0  0  0  0  0
    0.5808   -1.1359   -1.2976 F   0  0  0  0  0  0  0  0  0  0  0  0
    0.4019   -1.4141    0.8575 F   0  0  0  0  0  0  0  0  0  0  0  0
   -0.5839    0.5272   -0.0993 C   0  0  0  0  0  0  0  0  0  0  0  0
   -0.5531    1.2026   -1.2541 F   0  0  0  0  0  0  0  0  0  0  0  0
   -0.3928    1.3890    0.9111 F   0  0  0  0  0  0  0  0  0  0  0  0
   -1.9982   -0.0981    0.0698 C   0  0  0  0  0  0  0  0  0  0  0  0
   -2.1270   -0.5952    1.3177 F   0  0  0  0  0  0  0  0  0  0  0  0
   -2.1302   -1.1492   -0.7702 F   0  0  0  0  0  0  0  0  0  0  0  0
   -2.9069    0.8559   -0.1751 O   0  0  0  0  0  0  0  0  0  0  0  0
   -3.7869    0.5096    0.0151 H   0  0  0  0  0  0  0  0  0  0  0  0
    2.9068   -0.8142   -0.1546 F   0  0  0  0  0  0  0  0  0  0  0  0
  1  3  1  0
  2  1  1  0
  4  7  1  0
  4  1  1  0
  4  6  1  0
  5  4  1  0
  7 10  1  0
  7  9  1  0
  8  7  1  0
 10 11  1  0
 12 10  1  0
 13 14  1  0
 13 10  1  0
 15  1  1  0
M  END
>  <program>  (100) 
Gaussian 16, Revision C.02

>  <basis>  (100) 
6-311+G(2d) (5D, 7F)

>  <File Format>  (100) 
g03

$$$$
/home/yang/projects/t99_calc/v1/qchem_data/combined/log_fchk/cf3oh.log
     RDKit          3D

  6  5  0  0  0  0  0  0  0  0999 V2000
   -0.0069    0.0226    0.0000 C   0  0  0  0  0  0  0  0  0  0  0  0
    0.7849    1.0801   -0.0001 F   0  0  0  0  0  0  0  0  0  0  0  0
    0.2824   -0.7265    1.0746 F   0  0  0  0  0  0  0  0  0  0  0  0
    0.2823   -0.7266   -1.0745 F   0  0  0  0  0  0  0  0  0  0  0  0
   -1.2798    0.4424    0.0001 O   0  0  0  0  0  0  0  0  0  0  0  0
   -1.8665   -0.3178    0.0001 H   0  0  0  0  0  0  0  0  0  0  0  0
  1  5  1  0
  1  3  1  0
  2  1  1  0
  4  1  1  0
  5  6  1  0
M  END
>  <program>  (101) 
Gaussian 16, Revision A.03

>  <basis>  (101) 
6-311+G(2d,2p) (5D, 7F)

>  <File Format>  (101) 
g03

$$$$
/home/yang/projects/t99_calc/v1/qchem_data/combined/log_fchk/c5_secondary_rad.log
     RDKit          3D

 16 15  0  0  1  0  0  0  0  0999 V2000
    1.0627    0.0659   -0.5056 C   0  0  0  0  0  0  0  0  0  0  0  0
    0.6970   -0.9728   -1.2705 F   0  0  0  0  0  0  0  0  0  0  0  0
    1.1225    1.1677   -1.2693 F   0  0  0  0  0  0  0  0  0  0  0  0
   -0.0462    0.2843    0.5636 C   0  0  0  0  0  0  0  0  0  0  0  0
   -0.1429   -0.8253    1.3153 F   0  0  0  0  0  0  0  0  0  0  0  0
    0.3193    1.3144    1.3498 F   0  0  0  0  0  0  0  0  0  0  0  0
   -1.3794    0.5841   -0.0594 C   0  0  0  0  0  3  0  0  0  0  0  0
   -1.6225    1.8436   -0.3329 F   0  0  0  0  0  0  0  0  0  0  0  0
    2.4910   -0.2191    0.0334 C   0  0  0  0  0  0  0  0  0  0  0  0
    2.4976   -1.3094    0.7879 F   0  0  0  0  0  0  0  0  0  0  0  0
    2.9376    0.8052    0.7463 F   0  0  0  0  0  0  0  0  0  0  0  0
    3.3047   -0.4081   -0.9984 F   0  0  0  0  0  0  0  0  0  0  0  0
   -2.5629   -0.3367   -0.0871 C   0  0  0  0  0  0  0  0  0  0  0  0
   -3.2129   -0.3516    1.0856 F   0  0  0  0  0  0  0  0  0  0  0  0
   -3.4236    0.0669   -1.0183 F   0  0  0  0  0  0  0  0  0  0  0  0
   -2.1868   -1.5830   -0.3589 F   0  0  0  0  0  0  0  0  0  0  0  0
  1  9  1  0
  1  4  1  0
  2  1  1  0
  3  1  1  0
  4  5  1  0
  4  6  1  0
  7  8  1  0
  7  4  1  0
  9 11  1  0
  9 10  1  0
 12  9  1  0
 13  7  1  0
 13 14  1  0
 15 13  1  0
 16 13  1  0
M  RAD  1   7   2
M  END
>  <program>  (102) 
Gaussian 16, Revision A.03

>  <basis>  (102) 
6-311+G(2d,2p) (5D, 7F)

>  <File Format>  (102) 
g03

$$$$
Title Card Required
     RDKit          3D

 24 23  0  0  0  0  0  0  0  0999 V2000
    3.0676    0.2334    0.3433 C   0  0  0  0  0  0  0  0  0  0  0  0
    3.0212    0.4861    1.6736 F   0  0  0  0  0  0  0  0  0  0  0  0
    3.1248    1.4195   -0.3009 F   0  0  0  0  0  0  0  0  0  0  0  0
    4.2553   -0.6272    0.0426 C   0  0  0  0  0  0  0  0  0  0  0  0
    1.7324   -0.4586   -0.0604 C   0  0  0  0  0  0  0  0  0  0  0  0
    0.4571    0.4363    0.0439 C   0  0  0  0  0  0  0  0  0  0  0  0
   -0.8710   -0.3894    0.0506 C   0  0  0  0  0  0  0  0  0  0  0  0
   -2.1272    0.4668   -0.3033 C   0  0  0  0  0  0  0  0  0  0  0  0
    1.5782   -1.5396    0.7283 F   0  0  0  0  0  0  0  0  0  0  0  0
    1.8411   -0.8710   -1.3328 F   0  0  0  0  0  0  0  0  0  0  0  0
    0.4412    1.2702   -1.0060 F   0  0  0  0  0  0  0  0  0  0  0  0
    0.5002    1.1579    1.1695 F   0  0  0  0  0  0  0  0  0  0  0  0
   -1.0367   -0.9174    1.2711 F   0  0  0  0  0  0  0  0  0  0  0  0
   -0.7833   -1.3837   -0.8430 F   0  0  0  0  0  0  0  0  0  0  0  0
   -2.1496    0.6748   -1.6243 F   0  0  0  0  0  0  0  0  0  0  0  0
   -2.0630    1.6478    0.3267 F   0  0  0  0  0  0  0  0  0  0  0  0
    5.1496   -0.3241   -0.8793 C   0  0  0  0  0  0  0  0  0  0  0  0
   -3.4785   -0.1997    0.0915 C   0  0  0  0  0  0  0  0  0  0  0  0
   -3.5361   -1.4451   -0.3651 F   0  0  0  0  0  0  0  0  0  0  0  0
   -4.4701    0.4993   -0.4468 F   0  0  0  0  0  0  0  0  0  0  0  0
   -3.6348   -0.2108    1.4068 F   0  0  0  0  0  0  0  0  0  0  0  0
    5.0623    0.5693   -1.4818 H   0  0  0  0  0  0  0  0  0  0  0  0
    6.0009   -0.9668   -1.0525 H   0  0  0  0  0  0  0  0  0  0  0  0
    4.3268   -1.5205    0.6482 H   0  0  0  0  0  0  0  0  0  0  0  0
  1  2  1  0
  1  3  1  0
  1  4  1  0
  1  5  1  0
  4 17  2  0
  4 24  1  0
  5  6  1  0
  5  9  1  0
  5 10  1  0
  6  7  1  0
  6 11  1  0
  6 12  1  0
  7  8  1  0
  7 13  1  0
  7 14  1  0
  8 15  1  0
  8 16  1  0
  8 18  1  0
 17 22  1  0
 17 23  1  0
 18 19  1  0
 18 20  1  0
 18 21  1  0
M  END
$$$$
Title Card Required
     RDKit          3D

 35 34  0  0  0  0  0  0  0  0999 V2000
   -4.1220    0.2575   -0.2209 C   0  0  0  0  0  0  0  0  0  0  0  0
   -4.2461   -0.1129   -1.5014 F   0  0  0  0  0  0  0  0  0  0  0  0
   -4.0319    1.5931   -0.1596 F   0  0  0  0  0  0  0  0  0  0  0  0
   -5.3984   -0.1828    0.5568 C   0  0  0  0  0  0  0  0  0  0  0  0
   -5.3217   -1.4953    0.8388 F   0  0  0  0  0  0  0  0  0  0  0  0
   -5.4563    0.5005    1.7132 F   0  0  0  0  0  0  0  0  0  0  0  0
   -6.7359    0.0574   -0.1747 C   0  0  0  0  0  0  0  0  0  0  0  0
   -6.8666   -0.7878   -1.2089 F   0  0  0  0  0  0  0  0  0  0  0  0
   -6.7851    1.3214   -0.6331 F   0  0  0  0  0  0  0  0  0  0  0  0
   -2.8065   -0.3666    0.3480 C   0  0  0  0  0  0  0  0  0  0  0  0
   -1.5214    0.3948   -0.1150 C   0  0  0  0  0  0  0  0  0  0  0  0
   -2.7292   -1.6392   -0.0618 F   0  0  0  0  0  0  0  0  0  0  0  0
   -2.8538   -0.3388    1.6861 F   0  0  0  0  0  0  0  0  0  0  0  0
   -1.6450    0.7152   -1.4088 F   0  0  0  0  0  0  0  0  0  0  0  0
   -1.4101    1.5168    0.6073 F   0  0  0  0  0  0  0  0  0  0  0  0
   -0.2188   -0.4532    0.0604 C   0  0  0  0  0  0  0  0  0  0  0  0
    1.0793    0.4188    0.0410 C   0  0  0  0  0  0  0  0  0  0  0  0
    0.9677    1.3483   -0.9158 F   0  0  0  0  0  0  0  0  0  0  0  0
    1.2015    1.0233    1.2294 F   0  0  0  0  0  0  0  0  0  0  0  0
   -0.2738   -1.1015    1.2304 F   0  0  0  0  0  0  0  0  0  0  0  0
   -0.1573   -1.3464   -0.9350 F   0  0  0  0  0  0  0  0  0  0  0  0
   -7.5512   -0.1051    0.5331 H   0  0  0  0  0  0  0  0  0  0  0  0
    2.3690   -0.4216   -0.2363 C   0  0  0  0  0  0  0  0  0  0  0  0
    2.4260   -0.6912   -1.5462 F   0  0  0  0  0  0  0  0  0  0  0  0
    2.2972   -1.5713    0.4461 F   0  0  0  0  0  0  0  0  0  0  0  0
    3.6782    0.3203    0.1879 C   0  0  0  0  0  0  0  0  0  0  0  0
    4.9597   -0.2791   -0.4716 C   0  0  0  0  0  0  0  0  0  0  0  0
    6.2865    0.1431    0.2268 C   0  0  0  0  0  0  0  0  0  0  0  0
    3.5892    1.6085   -0.1675 F   0  0  0  0  0  0  0  0  0  0  0  0
    3.7966    0.2433    1.5195 F   0  0  0  0  0  0  0  0  0  0  0  0
    5.0215    0.1298   -1.7428 F   0  0  0  0  0  0  0  0  0  0  0  0
    4.8961   -1.6175   -0.4421 F   0  0  0  0  0  0  0  0  0  0  0  0
    6.3299    1.4605    0.3853 F   0  0  0  0  0  0  0  0  0  0  0  0
    6.4055   -0.4422    1.4089 F   0  0  0  0  0  0  0  0  0  0  0  0
    7.3052   -0.2307   -0.5363 F   0  0  0  0  0  0  0  0  0  0  0  0
  1  2  1  0
  1  3  1  0
  1  4  1  0
  1 10  1  0
  4  5  1  0
  4  6  1  0
  4  7  1  0
  7  8  1  0
  7  9  1  0
  7 22  1  0
 10 11  1  0
 10 12  1  0
 10 13  1  0
 11 14  1  0
 11 15  1  0
 11 16  1  0
 16 17  1  0
 16 20  1  0
 16 21  1  0
 17 18  1  0
 17 19  1  0
 17 23  1  0
 23 24  1  0
 23 25  1  0
 23 26  1  0
 26 27  1  0
 26 29  1  0
 26 30  1  0
 27 28  1  0
 27 31  1  0
 27 32  1  0
 28 33  1  0
 28 34  1  0
 28 35  1  0
M  END
$$$$
Title Card Required
     RDKit          3D

 20 19  0  0  0  0  0  0  0  0999 V2000
    0.0046   -0.3951    0.1188 C   0  0  0  0  0  0  0  0  0  0  0  0
    0.1011   -0.7679    1.4185 F   0  0  0  0  0  0  0  0  0  0  0  0
    0.1293   -1.5186   -0.6285 F   0  0  0  0  0  0  0  0  0  0  0  0
   -1.3239    0.2781   -0.1435 C   0  0  0  0  0  0  0  0  0  0  0  0
   -2.4908   -0.6503    0.1896 C   0  0  0  0  0  0  0  0  0  0  0  0
   -3.8387   -0.0180   -0.0453 C   0  0  0  0  0  0  0  0  0  0  0  0
   -4.7753   -0.5642   -0.5564 O   0  0  0  0  0  0  0  0  0  0  0  0
   -3.8989    1.2467    0.4135 O   0  0  0  0  0  0  0  0  0  0  0  0
   -4.7938    1.5644    0.2492 H   0  0  0  0  0  0  0  0  0  0  0  0
    1.2108    0.5247   -0.2014 C   0  0  0  0  0  0  0  0  0  0  0  0
    2.6257   -0.0738    0.0270 C   0  0  0  0  0  0  0  0  0  0  0  0
    1.1166    1.6298    0.5598 F   0  0  0  0  0  0  0  0  0  0  0  0
    1.1355    0.8893   -1.4944 F   0  0  0  0  0  0  0  0  0  0  0  0
    2.7981   -0.4133    1.2972 F   0  0  0  0  0  0  0  0  0  0  0  0
    2.8193   -1.1400   -0.7369 F   0  0  0  0  0  0  0  0  0  0  0  0
   -2.4568   -1.5628   -0.3988 H   0  0  0  0  0  0  0  0  0  0  0  0
   -2.4504   -0.9316    1.2438 H   0  0  0  0  0  0  0  0  0  0  0  0
   -1.3704    1.1843    0.4564 H   0  0  0  0  0  0  0  0  0  0  0  0
   -1.3512    0.5700   -1.1926 H   0  0  0  0  0  0  0  0  0  0  0  0
    3.5325    0.8453   -0.2919 F   0  0  0  0  0  0  0  0  0  0  0  0
  1  2  1  0
  1  3  1  0
  1  4  1  0
  1 10  1  0
  4  5  1  0
  4 18  1  0
  4 19  1  0
  5  6  1  0
  5 16  1  0
  5 17  1  0
  6  7  2  0
  6  8  1  0
  8  9  1  0
 10 11  1  0
 10 12  1  0
 10 13  1  0
 11 14  1  0
 11 15  1  0
 11 20  1  0
M  END
$$$$
/home/yang/projects/t99_calc/v1/qchem_data/combined/log_fchk/cf2o_oh.log
     RDKit          3D

  6  5  0  0  0  0  0  0  0  0999 V2000
   -0.5141    1.2001   -0.2798 F   0  0  0  0  0  0  0  0  0  0  0  0
    0.4459   -0.0166    1.3000 O   0  0  0  0  0  1  0  0  0  0  0  0
    1.0458   -0.3580   -0.7392 O   0  0  0  0  0  0  0  0  0  0  0  0
    1.6842    0.3620   -0.7254 H   0  0  0  0  0  0  0  0  0  0  0  0
   -0.0152   -0.0135    0.0419 C   0  0  0  0  0  0  0  0  0  0  0  0
   -0.9889   -0.8984   -0.1661 F   0  0  0  0  0  0  0  0  0  0  0  0
  1  5  1  0
  3  4  1  0
  3  5  1  0
  5  2  1  0
  6  5  1  0
M  RAD  1   2   2
M  END
>  <program>  (106) 
Gaussian 16, Revision A.03

>  <basis>  (106) 
6-311+G(2d,2p) (5D, 7F)

>  <File Format>  (106) 
g03

$$$$
Title Card Required
     RDKit          3D

  7  6  0  0  0  0  0  0  0  0999 V2000
    0.5904    0.0161   -0.0002 C   0  0  0  0  0  0  0  0  0  0  0  0
   -0.9472    0.1561   -0.0002 C   0  0  0  0  0  0  0  0  0  0  0  0
   -1.5519    1.1589   -0.0000 O   0  0  0  0  0  0  0  0  0  0  0  0
    1.1548    1.2086   -0.0016 F   0  0  0  0  0  0  0  0  0  0  0  0
    0.9842   -0.6538   -1.0802 F   0  0  0  0  0  0  0  0  0  0  0  0
   -1.5054   -1.0489   -0.0002 F   0  0  0  0  0  0  0  0  0  0  0  0
    0.9838   -0.6509    1.0822 F   0  0  0  0  0  0  0  0  0  0  0  0
  1  2  1  0
  1  4  1  0
  1  5  1  0
  1  7  1  0
  2  3  2  0
  2  6  1  0
M  END
$$$$
/home/yang/projects/t99_calc/v1/qchem_data/combined/log_fchk/lactone.log
     RDKit          3D

  6  6  0  0  0  0  0  0  0  0999 V2000
   -0.4831    0.0000   -0.0628 C   0  0  0  0  0  0  0  0  0  0  0  0
   -1.2161   -1.0777   -0.2426 F   0  0  0  0  0  0  0  0  0  0  0  0
    0.9638    0.0000   -0.0701 C   0  0  0  0  0  0  0  0  0  0  0  0
    0.3139    0.0000    1.1251 O   0  0  0  0  0  0  0  0  0  0  0  0
    2.0619   -0.0000   -0.4797 O   0  0  0  0  0  0  0  0  0  0  0  0
   -1.2161    1.0777   -0.2426 F   0  0  0  0  0  0  0  0  0  0  0  0
  1  4  1  0
  2  1  1  0
  3  1  1  0
  3  4  1  0
  5  3  2  0
  6  1  1  0
M  END
>  <program>  (108) 
Gaussian 16, Revision A.03

>  <basis>  (108) 
6-311+G(2d,2p) (5D, 7F)

>  <File Format>  (108) 
g03

$$$$
Title Card Required
     RDKit          3D

  4  3  0  0  0  0  0  0  0  0999 V2000
    0.1325   -0.4208    0.0000 C   0  0  0  0  0  3  0  0  0  0  0  0
    1.1507    0.1732   -0.0000 O   0  0  0  0  0  0  0  0  0  0  0  0
   -1.1118    0.0184   -0.0000 O   0  0  0  0  0  0  0  0  0  0  0  0
   -1.1060    0.9919    0.0000 H   0  0  0  0  0  0  0  0  0  0  0  0
  1  2  2  0
  1  3  1  0
  3  4  1  0
M  RAD  1   1   2
M  END
$$$$
/home/yang/projects/t99_calc/v1/qchem_data/combined/log_fchk/c3f6o.log
     RDKit          3D

 10 10  0  0  1  0  0  0  0  0999 V2000
   -0.1136    0.4975   -0.0776 C   0  0  2  0  0  0  0  0  0  0  0  0
   -1.3996   -0.1790   -0.0090 C   0  0  0  0  0  0  0  0  0  0  0  0
   -1.5511   -1.4675    0.2286 F   0  0  0  0  0  0  0  0  0  0  0  0
   -0.0377    1.7946    0.2147 F   0  0  0  0  0  0  0  0  0  0  0  0
   -2.4791    0.4753    0.3767 F   0  0  0  0  0  0  0  0  0  0  0  0
   -0.8697    0.1738   -1.2253 O   0  0  0  0  0  0  0  0  0  0  0  0
    1.2564   -0.1639    0.0535 C   0  0  0  0  0  0  0  0  0  0  0  0
    2.1307    0.4479   -0.7390 F   0  0  0  0  0  0  0  0  0  0  0  0
    1.6798   -0.0638    1.3110 F   0  0  0  0  0  0  0  0  0  0  0  0
    1.2015   -1.4441   -0.2808 F   0  0  0  0  0  0  0  0  0  0  0  0
  1  2  1  0
  1  7  1  0
  1  4  1  1
  2  3  1  0
  2  5  1  0
  6  1  1  0
  6  2  1  0
  7  9  1  0
  8  7  1  0
 10  7  1  0
M  END
>  <program>  (110) 
Gaussian 16, Revision A.03

>  <basis>  (110) 
6-311+G(2d,2p) (5D, 7F)

>  <File Format>  (110) 
g03

$$$$
/home/yang/projects/t99_calc/v1/qchem_data/combined/log_fchk/pfproh.log
     RDKit          3D

 12 11  0  0  0  0  0  0  0  0999 V2000
   -1.3087   -0.2372    0.0000 C   0  0  0  0  0  0  0  0  0  0  0  0
   -2.3440    0.5949   -0.0001 F   0  0  0  0  0  0  0  0  0  0  0  0
   -1.3817   -1.0040   -1.0799 F   0  0  0  0  0  0  0  0  0  0  0  0
   -1.3818   -1.0038    1.0800 F   0  0  0  0  0  0  0  0  0  0  0  0
   -0.0008    0.6021   -0.0000 C   0  0  0  0  0  0  0  0  0  0  0  0
   -0.0198    1.3785   -1.0915 F   0  0  0  0  0  0  0  0  0  0  0  0
   -0.0198    1.3787    1.0913 F   0  0  0  0  0  0  0  0  0  0  0  0
    1.3520   -1.0236   -1.0791 F   0  0  0  0  0  0  0  0  0  0  0  0
    1.3520   -1.0235    1.0792 F   0  0  0  0  0  0  0  0  0  0  0  0
    1.3209   -0.2112    0.0000 C   0  0  0  0  0  0  0  0  0  0  0  0
    2.3431    0.6548   -0.0000 O   0  0  0  0  0  0  0  0  0  0  0  0
    3.1739    0.1645    0.0001 H   0  0  0  0  0  0  0  0  0  0  0  0
  1  4  1  0
  2  1  1  0
  3  1  1  0
  5  1  1  0
  5 10  1  0
  5  7  1  0
  6  5  1  0
  8 10  1  0
 10  9  1  0
 11 10  1  0
 11 12  1  0
M  END
>  <program>  (111) 
Gaussian 16, Revision A.03

>  <basis>  (111) 
6-311+G(2d) (5D, 7F)

>  <File Format>  (111) 
g03

$$$$
/home/yang/projects/t99_calc/v1/qchem_data/combined/log_fchk/pfhxcof.log
     RDKit          3D

 19 18  0  0  0  0  0  0  0  0999 V2000
    0.4401   -0.3960    0.0896 C   0  0  0  0  0  0  0  0  0  0  0  0
   -0.9135    0.3514   -0.1210 C   0  0  0  0  0  0  0  0  0  0  0  0
   -2.1610   -0.4766    0.3132 C   0  0  0  0  0  0  0  0  0  0  0  0
   -3.4592    0.0901   -0.3089 C   0  0  0  0  0  0  0  0  0  0  0  0
   -1.0547    0.6336   -1.4266 F   0  0  0  0  0  0  0  0  0  0  0  0
   -0.9020    1.4962    0.5711 F   0  0  0  0  0  0  0  0  0  0  0  0
    0.5754   -1.3097   -0.8790 F   0  0  0  0  0  0  0  0  0  0  0  0
    0.4095   -1.0177    1.2755 F   0  0  0  0  0  0  0  0  0  0  0  0
   -4.1363   -0.4518   -1.0950 O   0  0  0  0  0  0  0  0  0  0  0  0
   -2.0213   -1.7385   -0.0959 F   0  0  0  0  0  0  0  0  0  0  0  0
   -2.2756   -0.4543    1.6490 F   0  0  0  0  0  0  0  0  0  0  0  0
   -3.7183    1.2943    0.1887 F   0  0  0  0  0  0  0  0  0  0  0  0
    1.6749    0.5576    0.0673 C   0  0  0  0  0  0  0  0  0  0  0  0
    3.0362   -0.1734   -0.1291 C   0  0  0  0  0  0  0  0  0  0  0  0
    1.5392    1.4384   -0.9340 F   0  0  0  0  0  0  0  0  0  0  0  0
    1.7305    1.2170    1.2286 F   0  0  0  0  0  0  0  0  0  0  0  0
    3.1510   -1.1788    0.7300 F   0  0  0  0  0  0  0  0  0  0  0  0
    3.1475   -0.6398   -1.3635 F   0  0  0  0  0  0  0  0  0  0  0  0
    4.0174    0.6920    0.0887 F   0  0  0  0  0  0  0  0  0  0  0  0
  1  8  1  0
  2  1  1  0
  2  3  1  0
  2  6  1  0
  3 11  1  0
  4 12  1  0
  4  3  1  0
  5  2  1  0
  7  1  1  0
  9  4  2  0
 10  3  1  0
 13  1  1  0
 13 16  1  0
 14 13  1  0
 14 19  1  0
 14 17  1  0
 15 13  1  0
 18 14  1  0
M  END
>  <program>  (112) 
Gaussian 16, Revision C.02

>  <basis>  (112) 
6-311+G(2d,2p) (5D, 7F)

>  <File Format>  (112) 
g03

$$$$
/home/yang/projects/t99_calc/v1/qchem_data/combined/log_fchk/epoxide.log
     RDKit          3D

  7  7  0  0  0  0  0  0  0  0999 V2000
    0.0098    0.7248    0.0000 C   0  0  0  0  0  0  0  0  0  0  0  0
    0.2586    1.4390    1.0804 F   0  0  0  0  0  0  0  0  0  0  0  0
    0.2586    1.4390   -1.0804 F   0  0  0  0  0  0  0  0  0  0  0  0
    0.0098   -0.7248   -0.0000 C   0  0  0  0  0  0  0  0  0  0  0  0
    0.2586   -1.4390   -1.0804 F   0  0  0  0  0  0  0  0  0  0  0  0
    0.2586   -1.4390    1.0804 F   0  0  0  0  0  0  0  0  0  0  0  0
   -1.1783    0.0000   -0.0000 O   0  0  0  0  0  0  0  0  0  0  0  0
  1  4  1  0
  1  7  1  0
  1  2  1  0
  3  1  1  0
  4  7  1  0
  4  6  1  0
  5  4  1  0
M  END
>  <program>  (113) 
Gaussian 16, Revision A.03

>  <basis>  (113) 
6-311+G(2d) (5D, 7F)

>  <File Format>  (113) 
g03

$$$$
/home/yang/projects/t99_calc/v1/qchem_data/combined/log_fchk/c6_rad.log
     RDKit          3D

 19 18  0  0  0  0  0  0  0  0999 V2000
   -0.9165   -0.3231    0.0507 C   0  0  0  0  0  0  0  0  0  0  0  0
   -1.0675   -0.7377    1.3175 F   0  0  0  0  0  0  0  0  0  0  0  0
   -0.9149   -1.3935   -0.7559 F   0  0  0  0  0  0  0  0  0  0  0  0
   -2.1528    0.5578   -0.3211 C   0  0  0  0  0  0  0  0  0  0  0  0
   -2.0207    1.7580    0.2655 F   0  0  0  0  0  0  0  0  0  0  0  0
   -2.1807    0.7093   -1.6532 F   0  0  0  0  0  0  0  0  0  0  0  0
   -3.4865   -0.0264    0.1098 C   0  0  0  0  0  3  0  0  0  0  0  0
   -3.7537    0.0357    1.3921 F   0  0  0  0  0  0  0  0  0  0  0  0
   -3.7787   -1.2001   -0.4025 F   0  0  0  0  0  0  0  0  0  0  0  0
    0.4537    0.4170   -0.0660 C   0  0  0  0  0  0  0  0  0  0  0  0
    1.6725   -0.5554   -0.1283 C   0  0  0  0  0  0  0  0  0  0  0  0
    0.5907    1.2204    0.9971 F   0  0  0  0  0  0  0  0  0  0  0  0
    0.4577    1.1640   -1.1772 F   0  0  0  0  0  0  0  0  0  0  0  0
    1.5104   -1.5360    0.7711 F   0  0  0  0  0  0  0  0  0  0  0  0
    1.7352   -1.0886   -1.3528 F   0  0  0  0  0  0  0  0  0  0  0  0
    3.0429    0.1251    0.1627 C   0  0  0  0  0  0  0  0  0  0  0  0
    3.1923    1.2112   -0.5859 F   0  0  0  0  0  0  0  0  0  0  0  0
    3.1420    0.4598    1.4404 F   0  0  0  0  0  0  0  0  0  0  0  0
    4.0125   -0.7325   -0.1280 F   0  0  0  0  0  0  0  0  0  0  0  0
  1  2  1  0
  3  1  1  0
  4  1  1  0
  4  7  1  0
  4  5  1  0
  6  4  1  0
  7  8  1  0
  9  7  1  0
 10  1  1  0
 10 12  1  0
 11 10  1  0
 11 16  1  0
 11 14  1  0
 13 10  1  0
 15 11  1  0
 16 18  1  0
 17 16  1  0
 19 16  1  0
M  RAD  1   7   2
M  END
>  <program>  (114) 
Gaussian 16, Revision A.03

>  <basis>  (114) 
6-311+G(2d,2p) (5D, 7F)

>  <File Format>  (114) 
g03

$$$$
/home/yang/projects/t99_calc/v1/qchem_data/combined/log_fchk/2_pentene.log
     RDKit          3D

 15 14  0  0  0  0  0  0  0  0999 V2000
   -1.3137    0.2776    0.6373 C   0  0  0  0  0  0  0  0  0  0  0  0
   -1.3447   -0.6111    1.6407 F   0  0  0  0  0  0  0  0  0  0  0  0
   -1.8995    1.4119    1.0503 F   0  0  0  0  0  0  0  0  0  0  0  0
    0.1153    0.5876    0.2261 C   0  0  0  0  0  0  0  0  0  0  0  0
    0.2691    1.8290   -0.2013 F   0  0  0  0  0  0  0  0  0  0  0  0
    1.1237   -0.2727    0.2509 C   0  0  0  0  0  0  0  0  0  0  0  0
    0.9428   -1.5222    0.6512 F   0  0  0  0  0  0  0  0  0  0  0  0
    2.5601   -0.0254   -0.1501 C   0  0  0  0  0  0  0  0  0  0  0  0
    3.3665   -0.2982    0.8773 F   0  0  0  0  0  0  0  0  0  0  0  0
    2.7720    1.2255   -0.5311 F   0  0  0  0  0  0  0  0  0  0  0  0
    2.8940   -0.8372   -1.1554 F   0  0  0  0  0  0  0  0  0  0  0  0
   -2.1622   -0.2936   -0.5290 C   0  0  0  0  0  0  0  0  0  0  0  0
   -2.1514    0.5573   -1.5507 F   0  0  0  0  0  0  0  0  0  0  0  0
   -1.6519   -1.4523   -0.9326 F   0  0  0  0  0  0  0  0  0  0  0  0
   -3.4123   -0.4850   -0.1387 F   0  0  0  0  0  0  0  0  0  0  0  0
  1  3  1  0
  1  2  1  0
  4  6  2  0
  4  1  1  0
  5  4  1  0
  6  7  1  0
  8  6  1  0
  8  9  1  0
 10  8  1  0
 11  8  1  0
 12 15  1  0
 12  1  1  0
 13 12  1  0
 14 12  1  0
M  END
>  <program>  (115) 
Gaussian 16, Revision A.03

>  <basis>  (115) 
6-311+G(2d,2p) (5D, 7F)

>  <File Format>  (115) 
g03

$$$$
/home/yang/projects/t99_calc/v1/qchem_data/combined/log_fchk/frd_903_carbF_OH.log
     RDKit          3D

 22 21  0  0  1  0  0  0  0  0999 V2000
    3.3898    0.0545   -0.0127 C   0  0  0  0  0  0  0  0  0  0  0  0
    4.3010   -0.9017   -0.1424 F   0  0  0  0  0  0  0  0  0  0  0  0
    3.5735    0.9501   -0.9732 F   0  0  0  0  0  0  0  0  0  0  0  0
    3.5546    0.6435    1.1648 F   0  0  0  0  0  0  0  0  0  0  0  0
    1.9788   -0.5885   -0.1174 C   0  0  0  0  0  0  0  0  0  0  0  0
    1.8791   -1.1545   -1.3259 F   0  0  0  0  0  0  0  0  0  0  0  0
    1.8910   -1.5359    0.8236 F   0  0  0  0  0  0  0  0  0  0  0  0
    0.8876    1.3850   -0.8209 F   0  0  0  0  0  0  0  0  0  0  0  0
    0.8361    0.9279    1.2913 F   0  0  0  0  0  0  0  0  0  0  0  0
    0.7859    0.3938    0.0715 C   0  0  0  0  0  0  0  0  0  0  0  0
   -0.3378   -0.3557   -0.1347 O   0  0  0  0  0  0  0  0  0  0  0  0
   -1.6007   -0.0578    0.3461 C   0  0  1  0  0  0  0  0  0  0  0  0
   -2.0178    1.4746   -1.5092 O   0  0  0  0  0  1  0  0  0  0  0  0
   -2.4601   -1.2767   -0.1129 C   0  0  0  0  0  0  0  0  0  0  0  0
   -1.6281   -0.0302    1.6934 F   0  0  0  0  0  0  0  0  0  0  0  0
   -2.6823   -1.2073   -1.4244 F   0  0  0  0  0  0  0  0  0  0  0  0
   -1.8197   -2.4058    0.1530 F   0  0  0  0  0  0  0  0  0  0  0  0
   -3.6220   -1.2974    0.5197 F   0  0  0  0  0  0  0  0  0  0  0  0
   -3.4966    1.3401    0.1478 F   0  0  0  0  0  0  0  0  0  0  0  0
   -2.1755    1.2955   -0.1875 C   0  0  1  0  0  0  0  0  0  0  0  0
   -1.4887    2.3184    0.4029 O   0  0  0  0  0  0  0  0  0  0  0  0
   -1.8215    3.1524    0.0446 H   0  0  0  0  0  0  0  0  0  0  0  0
  1  4  1  0
  2  1  1  0
  3  1  1  0
  5  1  1  0
  5 10  1  0
  5  7  1  0
  6  5  1  0
  8 10  1  0
 10  9  1  0
 11 10  1  0
 11 12  1  0
 12 15  1  1
 14 17  1  0
 14 12  1  0
 14 18  1  0
 16 14  1  0
 20 13  1  6
 20 19  1  0
 20 12  1  0
 20 21  1  0
 22 21  1  0
M  RAD  1  13   2
M  END
>  <program>  (116) 
Gaussian 16, Revision A.03

>  <basis>  (116) 
6-311+G(2d) (5D, 7F)

>  <File Format>  (116) 
g03

$$$$
/home/yang/projects/t99_calc/v1/qchem_data/combined/log_fchk/22rh.log
     RDKit          3D

 14 13  0  0  0  0  0  0  0  0999 V2000
   -1.1085   -0.1772    0.0000 C   0  0  0  0  0  0  0  0  0  0  0  0
    0.3680    0.2789   -0.0000 C   0  0  0  0  0  0  0  0  0  0  0  0
    1.3606   -0.8594   -0.0004 C   0  0  0  0  0  0  0  0  0  0  0  0
    2.8042   -0.3695    0.0001 C   0  0  0  0  0  0  0  0  0  0  0  0
   -1.3630   -0.9179   -1.0804 F   0  0  0  0  0  0  0  0  0  0  0  0
    0.5304    1.0680   -1.0909 F   0  0  0  0  0  0  0  0  0  0  0  0
    0.5306    1.0676    1.0910 F   0  0  0  0  0  0  0  0  0  0  0  0
   -1.3631   -0.9174    1.0808 F   0  0  0  0  0  0  0  0  0  0  0  0
    3.0162    0.2319   -0.8820 H   0  0  0  0  0  0  0  0  0  0  0  0
    3.4801   -1.2227   -0.0011 H   0  0  0  0  0  0  0  0  0  0  0  0
    3.0163    0.2297    0.8837 H   0  0  0  0  0  0  0  0  0  0  0  0
    1.1583   -1.4714    0.8783 H   0  0  0  0  0  0  0  0  0  0  0  0
    1.1586   -1.4706   -0.8796 H   0  0  0  0  0  0  0  0  0  0  0  0
   -1.9323    0.8626   -0.0002 F   0  0  0  0  0  0  0  0  0  0  0  0
  1  8  1  0
  2  1  1  0
  2  7  1  0
  3  2  1  0
  3  4  1  0
  3 12  1  0
  4 11  1  0
  5  1  1  0
  6  2  1  0
  9  4  1  0
 10  4  1  0
 13  3  1  0
 14  1  1  0
M  END
>  <program>  (117) 
Gaussian 16, Revision A.03

>  <basis>  (117) 
6-311+G(2d,2p) (5D, 7F)

>  <File Format>  (117) 
g03

$$$$
Title Card Required
     RDKit          3D

 12 11  0  0  0  0  0  0  0  0999 V2000
    0.1661    0.4335    0.3919 C   0  0  0  0  0  0  0  0  0  0  0  0
    0.0520    0.2653    1.7241 F   0  0  0  0  0  0  0  0  0  0  0  0
    0.1167    1.7517    0.1221 F   0  0  0  0  0  0  0  0  0  0  0  0
    1.4751   -0.1402   -0.0924 C   0  0  0  0  0  0  0  0  0  0  0  0
    1.6696   -1.3811    0.3590 F   0  0  0  0  0  0  0  0  0  0  0  0
   -1.0859   -0.2055   -0.2642 C   0  0  0  0  0  0  0  0  0  0  0  0
   -1.1350   -1.5082   -0.0136 F   0  0  0  0  0  0  0  0  0  0  0  0
   -1.0452   -0.0252   -1.5825 F   0  0  0  0  0  0  0  0  0  0  0  0
    2.3412    0.4735   -0.8669 C   0  0  0  0  0  0  0  0  0  0  0  0
    2.1415    1.4748   -1.2110 H   0  0  0  0  0  0  0  0  0  0  0  0
    3.2550   -0.0211   -1.1591 H   0  0  0  0  0  0  0  0  0  0  0  0
   -2.1887    0.3617    0.2085 F   0  0  0  0  0  0  0  0  0  0  0  0
  1  2  1  0
  1  3  1  0
  1  4  1  0
  1  6  1  0
  4  5  1  0
  4  9  2  0
  6  7  1  0
  6  8  1  0
  6 12  1  0
  9 10  1  0
  9 11  1  0
M  END
$$$$
/home/yang/projects/t99_calc/v1/qchem_data/combined/log_fchk/cbutane_diradical.log
     RDKit          3D

 12 11  0  0  0  0  0  0  0  0999 V2000
    1.9220    0.3026   -0.2275 C   0  0  0  0  0  3  0  0  0  0  0  0
    2.1469    1.2155    0.6903 F   0  0  0  0  0  0  0  0  0  0  0  0
    2.9709   -0.4642   -0.4247 F   0  0  0  0  0  0  0  0  0  0  0  0
   -1.9220   -0.3026   -0.2272 C   0  0  0  0  0  3  0  0  0  0  0  0
   -2.9709    0.4641   -0.4245 F   0  0  0  0  0  0  0  0  0  0  0  0
   -2.1468   -1.2154    0.6908 F   0  0  0  0  0  0  0  0  0  0  0  0
   -0.6216    0.4629   -0.0803 C   0  0  0  0  0  0  0  0  0  0  0  0
   -0.6220    1.1927    1.0574 F   0  0  0  0  0  0  0  0  0  0  0  0
   -0.5223    1.3104   -1.1185 F   0  0  0  0  0  0  0  0  0  0  0  0
    0.6216   -0.4629   -0.0802 C   0  0  0  0  0  0  0  0  0  0  0  0
    0.6221   -1.1926    1.0576 F   0  0  0  0  0  0  0  0  0  0  0  0
    0.5222   -1.3106   -1.1183 F   0  0  0  0  0  0  0  0  0  0  0  0
  1 10  1  0
  1  2  1  0
  3  1  1  0
  4  7  1  0
  4  6  1  0
  5  4  1  0
  7 10  1  0
  7  8  1  0
  9  7  1  0
 10 11  1  0
 12 10  1  0
M  RAD  2   1   2   4   2
M  END
>  <program>  (119) 
Gaussian 16, Revision A.03

>  <basis>  (119) 
6-311+G(2d,2p) (5D, 7F)

>  <File Format>  (119) 
g03

$$$$
/home/yang/projects/t99_calc/v1/qchem_data/combined/log_fchk/pfhpal.log
     RDKit          3D

 22 21  0  0  0  0  0  0  0  0999 V2000
    0.2397    0.4976    0.0938 C   0  0  0  0  0  0  0  0  0  0  0  0
    1.5448   -0.3235   -0.1498 C   0  0  0  0  0  0  0  0  0  0  0  0
    2.8351    0.3847    0.3649 C   0  0  0  0  0  0  0  0  0  0  0  0
    4.1054   -0.2190   -0.2796 C   0  0  0  0  0  0  0  0  0  0  0  0
    1.6959   -0.5197   -1.4699 F   0  0  0  0  0  0  0  0  0  0  0  0
    1.4427   -1.5117    0.4568 F   0  0  0  0  0  0  0  0  0  0  0  0
    0.1852    1.4837   -0.8088 F   0  0  0  0  0  0  0  0  0  0  0  0
    0.2906    1.0270    1.3227 F   0  0  0  0  0  0  0  0  0  0  0  0
    4.8318    0.3341   -1.0122 O   0  0  0  0  0  0  0  0  0  0  0  0
    2.7863    1.6803    0.0513 F   0  0  0  0  0  0  0  0  0  0  0  0
    2.9219    0.2544    1.6966 F   0  0  0  0  0  0  0  0  0  0  0  0
    4.2755   -1.4717    0.1284 F   0  0  0  0  0  0  0  0  0  0  0  0
   -1.0559   -0.3696   -0.0186 C   0  0  0  0  0  0  0  0  0  0  0  0
   -2.3468    0.4844   -0.2188 C   0  0  0  0  0  0  0  0  0  0  0  0
   -3.6674   -0.2874    0.0760 C   0  0  0  0  0  0  0  0  0  0  0  0
   -0.9363   -1.1998   -1.0631 F   0  0  0  0  0  0  0  0  0  0  0  0
   -1.1798   -1.0931    1.1011 F   0  0  0  0  0  0  0  0  0  0  0  0
   -2.3105    1.5488    0.5948 F   0  0  0  0  0  0  0  0  0  0  0  0
   -2.3939    0.9022   -1.4876 F   0  0  0  0  0  0  0  0  0  0  0  0
   -4.6902    0.4510   -0.3332 F   0  0  0  0  0  0  0  0  0  0  0  0
   -3.8008   -0.5157    1.3737 F   0  0  0  0  0  0  0  0  0  0  0  0
   -3.6850   -1.4442   -0.5751 F   0  0  0  0  0  0  0  0  0  0  0  0
  1  8  1  0
  2  1  1  0
  2  3  1  0
  2  6  1  0
  3 11  1  0
  4 12  1  0
  4  3  1  0
  5  2  1  0
  7  1  1  0
  9  4  2  0
 10  3  1  0
 13  1  1  0
 13 17  1  0
 14 13  1  0
 14 15  1  0
 14 18  1  0
 15 21  1  0
 16 13  1  0
 19 14  1  0
 20 15  1  0
 22 15  1  0
M  END
>  <program>  (120) 
Gaussian 16, Revision A.03

>  <basis>  (120) 
6-311+G(2d,2p) (5D, 7F)

>  <File Format>  (120) 
g03

$$$$
/home/yang/projects/t99_calc/v1/qchem_data/combined/log_fchk/cf2_h2o_ts_prod.log
     RDKit          3D

  6  5  0  0  0  0  0  0  0  0999 V2000
    0.0070    0.0001    0.3565 C   0  0  0  0  0  0  0  0  0  0  0  0
   -0.0593    0.0001    1.4410 H   0  0  0  0  0  0  0  0  0  0  0  0
   -0.6521   -1.0820   -0.1358 F   0  0  0  0  0  0  0  0  0  0  0  0
   -0.6512    1.0825   -0.1359 F   0  0  0  0  0  0  0  0  0  0  0  0
    1.3492   -0.0006   -0.9800 H   0  0  0  0  0  0  0  0  0  0  0  0
    1.2997   -0.0005   -0.0193 O   0  0  0  0  0  0  0  0  0  0  0  0
  1  2  1  0
  3  1  1  0
  4  1  1  0
  5  6  1  0
  6  1  1  0
M  END
>  <program>  (121) 
Gaussian 16, Revision A.03

>  <basis>  (121) 
6-311+G(2d,2p) (5D, 7F)

>  <File Format>  (121) 
g03

$$$$
/home/yang/projects/t99_calc/v1/qchem_data/combined/log_fchk/c4f7_o.log
     RDKit          3D

 12 11  0  0  1  0  0  0  0  0999 V2000
    0.9235    0.5405    0.0707 C   0  0  0  0  0  3  0  0  0  0  0  0
    1.1426    1.7223   -0.4396 F   0  0  0  0  0  0  0  0  0  0  0  0
    3.0922    0.0411   -0.5103 F   0  0  0  0  0  0  0  0  0  0  0  0
    1.9671   -0.4575    0.0168 C   0  0  0  0  0  0  0  0  0  0  0  0
    1.8768   -1.5830    0.3813 O   0  0  0  0  0  0  0  0  0  0  0  0
   -0.4669    0.3137    0.6133 C   0  0  0  0  0  0  0  0  0  0  0  0
   -1.4387   -0.2998   -0.4328 C   0  0  0  0  0  0  0  0  0  0  0  0
   -0.4303   -0.5011    1.6747 F   0  0  0  0  0  0  0  0  0  0  0  0
   -0.9783    1.4986    0.9883 F   0  0  0  0  0  0  0  0  0  0  0  0
   -0.9986   -1.4887   -0.8219 F   0  0  0  0  0  0  0  0  0  0  0  0
   -1.5042    0.5010   -1.4946 F   0  0  0  0  0  0  0  0  0  0  0  0
   -2.6483   -0.4307    0.0859 F   0  0  0  0  0  0  0  0  0  0  0  0
  1  2  1  0
  1  6  1  0
  3  4  1  0
  4  1  1  0
  4  5  2  0
  6  9  1  0
  6  8  1  0
  7 12  1  0
  7  6  1  0
 10  7  1  0
 11  7  1  0
M  RAD  1   1   2
M  END
>  <program>  (122) 
Gaussian 16, Revision A.03

>  <basis>  (122) 
6-311+G(2d,2p) (5D, 7F)

>  <File Format>  (122) 
g03

$$$$
Title Card Required
     RDKit          3D

  7  6  0  0  0  0  0  0  0  0999 V2000
    0.6613   -0.0150   -0.0001 C   0  0  0  0  0  3  0  0  0  0  0  0
    1.2719   -1.1652    0.0001 F   0  0  0  0  0  0  0  0  0  0  0  0
    1.4636    1.0046   -0.0000 F   0  0  0  0  0  0  0  0  0  0  0  0
   -0.7634    0.1458   -0.0001 C   0  0  0  0  0  0  0  0  0  0  0  0
   -1.3047    1.2262    0.0001 O   0  0  0  0  0  0  0  0  0  0  0  0
   -1.4029   -1.0385   -0.0001 O   0  0  0  0  0  0  0  0  0  0  0  0
   -2.3456   -0.8423    0.0005 H   0  0  0  0  0  0  0  0  0  0  0  0
  1  2  1  0
  1  3  1  0
  1  4  1  0
  4  5  2  0
  4  6  1  0
  6  7  1  0
M  RAD  1   1   2
M  END
$$$$
/home/yang/projects/t99_calc/v1/qchem_data/combined/log_fchk/c3f8.log
     RDKit          3D

 11 10  0  0  0  0  0  0  0  0999 V2000
    0.0000    1.3125   -0.2361 C   0  0  0  0  0  0  0  0  0  0  0  0
    0.0000    2.3443    0.5972 F   0  0  0  0  0  0  0  0  0  0  0  0
    1.0797    1.3805   -1.0030 F   0  0  0  0  0  0  0  0  0  0  0  0
   -1.0797    1.3805   -1.0030 F   0  0  0  0  0  0  0  0  0  0  0  0
   -0.0000   -0.0000    0.5935 C   0  0  0  0  0  0  0  0  0  0  0  0
    1.0916   -0.0000    1.3682 F   0  0  0  0  0  0  0  0  0  0  0  0
   -1.0916    0.0000    1.3682 F   0  0  0  0  0  0  0  0  0  0  0  0
   -0.0000   -1.3125   -0.2361 C   0  0  0  0  0  0  0  0  0  0  0  0
   -1.0797   -1.3805   -1.0030 F   0  0  0  0  0  0  0  0  0  0  0  0
   -0.0000   -2.3443    0.5972 F   0  0  0  0  0  0  0  0  0  0  0  0
    1.0797   -1.3805   -1.0030 F   0  0  0  0  0  0  0  0  0  0  0  0
  1  5  1  0
  1  2  1  0
  3  1  1  0
  4  1  1  0
  5  6  1  0
  5  7  1  0
  8  5  1  0
  8 10  1  0
  9  8  1  0
 11  8  1  0
M  END
>  <program>  (124) 
Gaussian 16, Revision A.03

>  <basis>  (124) 
6-311+G(2d,2p) (5D, 7F)

>  <File Format>  (124) 
g03

$$$$
/home/yang/projects/t99_calc/v1/qchem_data/combined/log_fchk/pfpncof.log
     RDKit          3D

 16 15  0  0  0  0  0  0  0  0999 V2000
   -1.0664    0.5396   -0.0225 C   0  0  0  0  0  0  0  0  0  0  0  0
    0.2364   -0.3095   -0.1140 C   0  0  0  0  0  0  0  0  0  0  0  0
    1.5254    0.4674    0.2896 C   0  0  0  0  0  0  0  0  0  0  0  0
    2.7997   -0.2449   -0.2224 C   0  0  0  0  0  0  0  0  0  0  0  0
    0.3940   -0.7215   -1.3830 F   0  0  0  0  0  0  0  0  0  0  0  0
    0.1232   -1.3839    0.6760 F   0  0  0  0  0  0  0  0  0  0  0  0
   -1.1081    1.3782   -1.0620 F   0  0  0  0  0  0  0  0  0  0  0  0
   -1.0517    1.2472    1.1156 F   0  0  0  0  0  0  0  0  0  0  0  0
    3.5407    0.1703   -1.0278 O   0  0  0  0  0  0  0  0  0  0  0  0
    1.4914    1.6905   -0.2412 F   0  0  0  0  0  0  0  0  0  0  0  0
    1.5918    0.5664    1.6254 F   0  0  0  0  0  0  0  0  0  0  0  0
    2.9538   -1.4100    0.3970 F   0  0  0  0  0  0  0  0  0  0  0  0
   -2.3756   -0.3037   -0.0389 C   0  0  0  0  0  0  0  0  0  0  0  0
   -2.3633   -1.1561   -1.0568 F   0  0  0  0  0  0  0  0  0  0  0  0
   -2.5166   -0.9778    1.0923 F   0  0  0  0  0  0  0  0  0  0  0  0
   -3.4082    0.5164   -0.1775 F   0  0  0  0  0  0  0  0  0  0  0  0
  1  8  1  0
  2  1  1  0
  2  3  1  0
  2  6  1  0
  3 11  1  0
  4  3  1  0
  4 12  1  0
  5  2  1  0
  7  1  1  0
  9  4  2  0
 10  3  1  0
 13  1  1  0
 13 15  1  0
 14 13  1  0
 16 13  1  0
M  END
>  <program>  (125) 
Gaussian 16, Revision C.02

>  <basis>  (125) 
6-311+G(2d,2p) (5D, 7F)

>  <File Format>  (125) 
g03

$$$$
/home/yang/projects/t99_calc/v1/qchem_data/combined/log_fchk/tfcof_oh.log
     RDKit          3D

  9  8  0  0  1  0  0  0  0  0999 V2000
    0.7696    0.0283    0.0041 C   0  0  0  0  0  0  0  0  0  0  0  0
    1.2015    1.2302   -0.3537 F   0  0  0  0  0  0  0  0  0  0  0  0
    1.2082   -0.2384    1.2283 F   0  0  0  0  0  0  0  0  0  0  0  0
   -1.2793    0.2378   -1.2708 O   0  0  0  0  0  1  0  0  0  0  0  0
    1.2689   -0.8734   -0.8374 F   0  0  0  0  0  0  0  0  0  0  0  0
   -1.1487   -1.2721    0.3578 F   0  0  0  0  0  0  0  0  0  0  0  0
   -0.7777   -0.0259   -0.0488 C   0  0  1  0  0  0  0  0  0  0  0  0
   -1.2805    0.9465    0.7671 O   0  0  0  0  0  0  0  0  0  0  0  0
   -2.2424    0.8956    0.7423 H   0  0  0  0  0  0  0  0  0  0  0  0
  1  3  1  0
  2  1  1  0
  5  1  1  0
  7  4  1  6
  7  1  1  0
  7  6  1  0
  7  8  1  0
  9  8  1  0
M  RAD  1   4   2
M  END
>  <program>  (126) 
Gaussian 16, Revision A.03

>  <basis>  (126) 
6-311+G(2d,2p) (5D, 7F)

>  <File Format>  (126) 
g03

$$$$
/home/yang/projects/t99_calc/v1/qchem_data/combined/log_fchk/1_octane_c7_rad.log
     RDKit          3D

 22 21  0  0  0  0  0  0  0  0999 V2000
    1.5429   -0.2986   -0.0874 C   0  0  0  0  0  0  0  0  0  0  0  0
    1.6954   -0.5801   -1.3900 F   0  0  0  0  0  0  0  0  0  0  0  0
    1.4470   -1.4485    0.5946 F   0  0  0  0  0  0  0  0  0  0  0  0
    2.8285    0.4451    0.4000 C   0  0  0  0  0  0  0  0  0  0  0  0
    2.7905    1.7109   -0.0452 F   0  0  0  0  0  0  0  0  0  0  0  0
    2.8397    0.4404    1.7409 F   0  0  0  0  0  0  0  0  0  0  0  0
    4.1281   -0.1773   -0.0794 C   0  0  0  0  0  3  0  0  0  0  0  0
    4.4234    0.0115   -1.3429 F   0  0  0  0  0  0  0  0  0  0  0  0
    4.3305   -1.4191    0.2982 F   0  0  0  0  0  0  0  0  0  0  0  0
    0.2255    0.5214    0.0907 C   0  0  0  0  0  0  0  0  0  0  0  0
   -1.0595   -0.3657    0.0190 C   0  0  0  0  0  0  0  0  0  0  0  0
    0.1713    1.4463   -0.8760 F   0  0  0  0  0  0  0  0  0  0  0  0
    0.2487    1.1332    1.2810 F   0  0  0  0  0  0  0  0  0  0  0  0
   -0.9205   -1.2628   -0.9661 F   0  0  0  0  0  0  0  0  0  0  0  0
   -1.1911   -1.0149    1.1829 F   0  0  0  0  0  0  0  0  0  0  0  0
   -2.3564    0.4585   -0.2536 C   0  0  0  0  0  0  0  0  0  0  0  0
   -3.6730   -0.3079    0.0709 C   0  0  0  0  0  0  0  0  0  0  0  0
   -3.6688   -1.5045   -0.5042 F   0  0  0  0  0  0  0  0  0  0  0  0
   -3.8249   -0.4536    1.3785 F   0  0  0  0  0  0  0  0  0  0  0  0
   -4.6976    0.3907   -0.4003 F   0  0  0  0  0  0  0  0  0  0  0  0
   -2.3450    1.5737    0.4895 F   0  0  0  0  0  0  0  0  0  0  0  0
   -2.3894    0.7931   -1.5476 F   0  0  0  0  0  0  0  0  0  0  0  0
  1 10  1  0
  1  4  1  0
  1  3  1  0
  2  1  1  0
  4  6  1  0
  5  4  1  0
  7  9  1  0
  7  4  1  0
  8  7  1  0
 10 13  1  0
 11 10  1  0
 11 15  1  0
 12 10  1  0
 14 11  1  0
 16 11  1  0
 16 17  1  0
 16 21  1  0
 17 19  1  0
 18 17  1  0
 20 17  1  0
 22 16  1  0
M  RAD  1   7   2
M  END
>  <program>  (127) 
Gaussian 16, Revision A.03

>  <basis>  (127) 
6-311+G(2d,2p) (5D, 7F)

>  <File Format>  (127) 
g03

$$$$
/home/yang/projects/t99_calc/v1/qchem_data/combined/log_fchk/2_propyl.log
     RDKit          3D

 10  9  0  0  0  0  0  0  0  0999 V2000
   -0.0034    0.5434   -0.2276 C   0  0  0  0  0  3  0  0  0  0  0  0
   -0.0305    1.8449   -0.0508 F   0  0  0  0  0  0  0  0  0  0  0  0
   -1.3234   -0.1397   -0.0255 C   0  0  0  0  0  0  0  0  0  0  0  0
    1.3308   -0.1215   -0.0262 C   0  0  0  0  0  0  0  0  0  0  0  0
    1.4631   -0.6024    1.2188 F   0  0  0  0  0  0  0  0  0  0  0  0
    2.3053    0.7566   -0.2334 F   0  0  0  0  0  0  0  0  0  0  0  0
    1.4848   -1.1412   -0.8680 F   0  0  0  0  0  0  0  0  0  0  0  0
   -1.7785    0.0403    1.2209 F   0  0  0  0  0  0  0  0  0  0  0  0
   -1.2099   -1.4458   -0.2428 F   0  0  0  0  0  0  0  0  0  0  0  0
   -2.2369    0.3595   -0.8584 F   0  0  0  0  0  0  0  0  0  0  0  0
  1  2  1  0
  1  4  1  0
  1  3  1  0
  3  8  1  0
  4  5  1  0
  6  4  1  0
  7  4  1  0
  9  3  1  0
 10  3  1  0
M  RAD  1   1   2
M  END
>  <program>  (128) 
Gaussian 16, Revision A.03

>  <basis>  (128) 
6-311+G(2d,2p) (5D, 7F)

>  <File Format>  (128) 
g03

$$$$
/home/yang/projects/t99_calc/v1/qchem_data/combined/log_fchk/cf2o2_rad.log
     RDKit          3D

  5  4  0  0  0  0  0  0  0  0999 V2000
    0.0000    0.3830    0.0000 C   0  0  0  0  0  3  0  0  0  0  0  0
   -0.7463   -0.5821    0.0000 O   0  0  0  0  0  0  0  0  0  0  0  0
   -0.1341   -1.8499    0.0000 O   0  0  0  0  0  1  0  0  0  0  0  0
   -0.4866    1.5724    0.0000 F   0  0  0  0  0  0  0  0  0  0  0  0
    1.2692    0.3341    0.0000 F   0  0  0  0  0  0  0  0  0  0  0  0
  1  2  1  0
  1  4  1  0
  1  5  1  0
  2  3  1  0
M  RAD  2   1   2   3   2
M  END
>  <program>  (129) 
Gaussian 16, Revision A.03

>  <basis>  (129) 
6-311+G(2d) (5D, 7F)

>  <File Format>  (129) 
g03

$$$$
/home/yang/projects/t99_calc/v1/qchem_data/combined/log_fchk/ethane1H.log
     RDKit          3D

  8  7  0  0  0  0  0  0  0  0999 V2000
    0.6157    0.0003   -0.0018 C   0  0  0  0  0  0  0  0  0  0  0  0
    1.2241   -1.0811   -0.4894 F   0  0  0  0  0  0  0  0  0  0  0  0
    1.2239    1.0812   -0.4891 F   0  0  0  0  0  0  0  0  0  0  0  0
   -0.8574   -0.0000   -0.4375 C   0  0  0  0  0  0  0  0  0  0  0  0
   -1.4590    1.0938    0.0611 F   0  0  0  0  0  0  0  0  0  0  0  0
   -1.4585   -1.0942    0.0616 F   0  0  0  0  0  0  0  0  0  0  0  0
   -0.9369    0.0000   -1.5253 H   0  0  0  0  0  0  0  0  0  0  0  0
    0.7348    0.0001    1.3181 F   0  0  0  0  0  0  0  0  0  0  0  0
  1  8  1  0
  2  1  1  0
  3  1  1  0
  4  1  1  0
  4  5  1  0
  4  6  1  0
  7  4  1  0
M  END
>  <program>  (130) 
Gaussian 16, Revision A.03

>  <basis>  (130) 
6-311+G(2d,2p) (5D, 7F)

>  <File Format>  (130) 
g03

$$$$
/home/yang/projects/t99_calc/v1/qchem_data/combined/log_fchk/octene.log
     RDKit          3D

 24 23  0  0  0  0  0  0  0  0999 V2000
    2.3611   -0.2106    0.7501 C   0  0  0  0  0  0  0  0  0  0  0  0
    2.2443   -1.1683    1.6841 F   0  0  0  0  0  0  0  0  0  0  0  0
    2.3896    0.9888    1.3585 F   0  0  0  0  0  0  0  0  0  0  0  0
    3.6358   -0.4443   -0.0160 C   0  0  0  0  0  0  0  0  0  0  0  0
    3.9289   -1.7264   -0.2275 F   0  0  0  0  0  0  0  0  0  0  0  0
    1.1023   -0.2524   -0.1707 C   0  0  0  0  0  0  0  0  0  0  0  0
   -0.2281    0.1870    0.5191 C   0  0  0  0  0  0  0  0  0  0  0  0
   -1.5005   -0.2616   -0.2708 C   0  0  0  0  0  0  0  0  0  0  0  0
   -2.7828    0.5299    0.1359 C   0  0  0  0  0  0  0  0  0  0  0  0
    0.9739   -1.5043   -0.6353 F   0  0  0  0  0  0  0  0  0  0  0  0
    1.3261    0.5716   -1.2064 F   0  0  0  0  0  0  0  0  0  0  0  0
   -0.2270    1.5229    0.6205 F   0  0  0  0  0  0  0  0  0  0  0  0
   -0.2906   -0.3420    1.7464 F   0  0  0  0  0  0  0  0  0  0  0  0
   -1.7021   -1.5658   -0.0424 F   0  0  0  0  0  0  0  0  0  0  0  0
   -1.2959   -0.0768   -1.5817 F   0  0  0  0  0  0  0  0  0  0  0  0
   -2.7377    1.7414   -0.4280 F   0  0  0  0  0  0  0  0  0  0  0  0
   -2.8248    0.6659    1.4684 F   0  0  0  0  0  0  0  0  0  0  0  0
    5.5342    0.2035   -1.1544 F   0  0  0  0  0  0  0  0  0  0  0  0
    4.4435    0.4876   -0.4996 C   0  0  0  0  0  0  0  0  0  0  0  0
    4.2565    1.7714   -0.3897 F   0  0  0  0  0  0  0  0  0  0  0  0
   -4.1126   -0.1492   -0.3078 C   0  0  0  0  0  0  0  0  0  0  0  0
   -4.0658   -0.4676   -1.5958 F   0  0  0  0  0  0  0  0  0  0  0  0
   -5.1101    0.7037   -0.1132 F   0  0  0  0  0  0  0  0  0  0  0  0
   -4.3452   -1.2423    0.4029 F   0  0  0  0  0  0  0  0  0  0  0  0
  1  3  1  0
  1  2  1  0
  4  1  1  0
  5  4  1  0
  6  7  1  0
  6  1  1  0
  7 12  1  0
  7 13  1  0
  8 14  1  0
  8  9  1  0
  8  7  1  0
  9 17  1  0
 10  6  1  0
 11  6  1  0
 15  8  1  0
 16  9  1  0
 18 19  1  0
 19 20  1  0
 19  4  2  0
 21 23  1  0
 21  9  1  0
 21 24  1  0
 22 21  1  0
M  END
>  <program>  (131) 
Gaussian 16, Revision A.03

>  <basis>  (131) 
6-311+G(2d,2p) (5D, 7F)

>  <File Format>  (131) 
g03

$$$$
/home/yang/projects/t99_calc/v1/qchem_data/combined/log_fchk/ester_oh.log
     RDKit          3D

 19 18  0  0  1  0  0  0  0  0999 V2000
    3.0401    0.0411   -0.0120 C   0  0  0  0  0  0  0  0  0  0  0  0
    3.8735    1.0291    0.2915 F   0  0  0  0  0  0  0  0  0  0  0  0
    3.2346   -0.9573    0.8406 F   0  0  0  0  0  0  0  0  0  0  0  0
    3.3101   -0.3800   -1.2395 F   0  0  0  0  0  0  0  0  0  0  0  0
    1.5832    0.5734    0.0836 C   0  0  0  0  0  0  0  0  0  0  0  0
    1.4161    1.0910    1.3065 F   0  0  0  0  0  0  0  0  0  0  0  0
    1.4449    1.5434   -0.8286 F   0  0  0  0  0  0  0  0  0  0  0  0
    0.5345   -1.4204    0.8160 F   0  0  0  0  0  0  0  0  0  0  0  0
    0.6770   -1.1013   -1.3186 F   0  0  0  0  0  0  0  0  0  0  0  0
    0.4700   -0.4876   -0.1483 C   0  0  0  0  0  0  0  0  0  0  0  0
   -0.7143    0.1790   -0.1295 O   0  0  0  0  0  0  0  0  0  0  0  0
   -3.0422    0.5091   -0.1062 C   0  0  0  0  0  0  0  0  0  0  0  0
   -2.9441    1.6057    0.6256 F   0  0  0  0  0  0  0  0  0  0  0  0
   -2.9756    0.8283   -1.3849 F   0  0  0  0  0  0  0  0  0  0  0  0
   -4.2119   -0.0748    0.1319 F   0  0  0  0  0  0  0  0  0  0  0  0
   -2.0069   -0.7716    1.5324 O   0  0  0  0  0  1  0  0  0  0  0  0
   -1.8774   -0.5244    0.2262 C   0  0  2  0  0  0  0  0  0  0  0  0
   -1.9967   -1.6392   -0.5687 O   0  0  0  0  0  0  0  0  0  0  0  0
   -2.5296   -2.2891   -0.0977 H   0  0  0  0  0  0  0  0  0  0  0  0
  1  5  1  0
  1  2  1  0
  1  3  1  0
  4  1  1  0
  5  6  1  0
  7  5  1  0
  9 10  1  0
 10 11  1  0
 10  5  1  0
 10  8  1  0
 11 17  1  0
 12 15  1  0
 12 17  1  0
 12 13  1  0
 14 12  1  0
 17 16  1  1
 18 19  1  0
 18 17  1  0
M  RAD  1  16   2
M  END
>  <program>  (132) 
Gaussian 16, Revision A.03

>  <basis>  (132) 
6-311+G(2d) (5D, 7F)

>  <File Format>  (132) 
g03

$$$$
/home/yang/projects/t99_calc/v1/qchem_data/combined/log_fchk/c2f4o2.log
     RDKit          3D

  8  7  0  0  0  0  0  0  0  0999 V2000
   -0.9814    0.4171    0.1171 C   0  0  0  0  0  3  0  0  0  0  0  0
    0.5278    0.3640    0.0938 C   0  0  0  0  0  0  0  0  0  0  0  0
    1.0160    1.4475   -0.4966 F   0  0  0  0  0  0  0  0  0  0  0  0
   -1.5874   -0.3206    1.0108 F   0  0  0  0  0  0  0  0  0  0  0  0
    0.9954    0.2714    1.3301 F   0  0  0  0  0  0  0  0  0  0  0  0
    1.0757   -0.7115   -0.6874 O   0  0  0  0  0  0  0  0  0  0  0  0
    0.5306   -1.8486   -0.3478 O   0  0  0  0  0  1  0  0  0  0  0  0
   -1.5496    0.3567   -1.0648 F   0  0  0  0  0  0  0  0  0  0  0  0
  1  4  1  0
  2  1  1  0
  2  5  1  0
  3  2  1  0
  6  7  1  0
  6  2  1  0
  8  1  1  0
M  RAD  2   1   2   7   2
M  END
>  <program>  (133) 
Gaussian 16, Revision A.03

>  <basis>  (133) 
6-311+G(2d,2p) (5D, 7F)

>  <File Format>  (133) 
g03

$$$$
/home/yang/projects/t99_calc/v1/qchem_data/combined/log_fchk/frd_903_carbF.log
     RDKit          3D

 20 19  0  0  1  0  0  0  0  0999 V2000
   -3.2387    0.0486   -0.0828 C   0  0  0  0  0  0  0  0  0  0  0  0
   -4.1121   -0.8618   -0.4915 F   0  0  0  0  0  0  0  0  0  0  0  0
   -3.5862    0.4628    1.1272 F   0  0  0  0  0  0  0  0  0  0  0  0
   -3.2697    1.0784   -0.9193 F   0  0  0  0  0  0  0  0  0  0  0  0
   -1.8246   -0.5943   -0.0594 C   0  0  0  0  0  0  0  0  0  0  0  0
   -1.8513   -1.6187    0.8003 F   0  0  0  0  0  0  0  0  0  0  0  0
   -1.5596   -1.0530   -1.2879 F   0  0  0  0  0  0  0  0  0  0  0  0
   -0.9063    0.8623    1.5596 F   0  0  0  0  0  0  0  0  0  0  0  0
   -0.5744    1.3676   -0.5181 F   0  0  0  0  0  0  0  0  0  0  0  0
   -0.6657    0.3555    0.3552 C   0  0  0  0  0  0  0  0  0  0  0  0
    0.4894   -0.3895    0.3913 O   0  0  0  0  0  0  0  0  0  0  0  0
    1.6225    0.0158   -0.2789 C   0  0  1  0  0  0  0  0  0  0  0  0
    2.0514    1.4632    0.0678 C   0  0  0  0  0  0  0  0  0  0  0  0
    1.9664    1.9494    1.1320 O   0  0  0  0  0  0  0  0  0  0  0  0
    2.7315   -0.9793    0.1668 C   0  0  0  0  0  0  0  0  0  0  0  0
    1.4772   -0.1196   -1.6132 F   0  0  0  0  0  0  0  0  0  0  0  0
    2.8907   -0.9484    1.4803 F   0  0  0  0  0  0  0  0  0  0  0  0
    2.4118   -2.2067   -0.2065 F   0  0  0  0  0  0  0  0  0  0  0  0
    3.8782   -0.6340   -0.4140 F   0  0  0  0  0  0  0  0  0  0  0  0
    2.5680    2.0779   -0.9835 F   0  0  0  0  0  0  0  0  0  0  0  0
  1  5  1  0
  1  3  1  0
  2  1  1  0
  4  1  1  0
  5 10  1  0
  5  6  1  0
  7  5  1  0
  9 10  1  0
 10 11  1  0
 10  8  1  0
 12 16  1  6
 12 13  1  0
 12 15  1  0
 12 11  1  0
 13 14  2  0
 15 17  1  0
 18 15  1  0
 19 15  1  0
 20 13  1  0
M  END
>  <program>  (134) 
Gaussian 16, Revision A.03

>  <basis>  (134) 
6-311+G(2d) (5D, 7F)

>  <File Format>  (134) 
g03

$$$$
/home/yang/projects/t99_calc/v1/qchem_data/combined/log_fchk/2_heptene.log
     RDKit          3D

 21 20  0  0  0  0  0  0  0  0999 V2000
    0.1725    0.9861    0.3932 C   0  0  0  0  0  0  0  0  0  0  0  0
    0.1670    0.8543    1.7285 F   0  0  0  0  0  0  0  0  0  0  0  0
   -0.1615    2.2471    0.0849 F   0  0  0  0  0  0  0  0  0  0  0  0
    1.5592    0.7126   -0.1686 C   0  0  0  0  0  0  0  0  0  0  0  0
    1.8227    1.4223   -1.2523 F   0  0  0  0  0  0  0  0  0  0  0  0
    2.4335   -0.1497    0.3310 C   0  0  0  0  0  0  0  0  0  0  0  0
    2.1390   -0.8781    1.3970 F   0  0  0  0  0  0  0  0  0  0  0  0
    3.8227   -0.4577   -0.1794 C   0  0  0  0  0  0  0  0  0  0  0  0
    4.7150   -0.2417    0.7888 F   0  0  0  0  0  0  0  0  0  0  0  0
    4.1528    0.2809   -1.2285 F   0  0  0  0  0  0  0  0  0  0  0  0
    3.9015   -1.7443   -0.5249 F   0  0  0  0  0  0  0  0  0  0  0  0
   -0.8927    0.0202   -0.2090 C   0  0  0  0  0  0  0  0  0  0  0  0
   -0.9862    0.2892   -1.5207 F   0  0  0  0  0  0  0  0  0  0  0  0
   -0.4458   -1.2359   -0.0614 F   0  0  0  0  0  0  0  0  0  0  0  0
   -2.3035    0.1108    0.4461 C   0  0  0  0  0  0  0  0  0  0  0  0
   -2.6502    1.3946    0.6054 F   0  0  0  0  0  0  0  0  0  0  0  0
   -2.2539   -0.4804    1.6448 F   0  0  0  0  0  0  0  0  0  0  0  0
   -3.4319   -0.5788   -0.3768 C   0  0  0  0  0  0  0  0  0  0  0  0
   -3.6861    0.0987   -1.4866 F   0  0  0  0  0  0  0  0  0  0  0  0
   -3.0871   -1.8208   -0.6937 F   0  0  0  0  0  0  0  0  0  0  0  0
   -4.5337   -0.6148    0.3612 F   0  0  0  0  0  0  0  0  0  0  0  0
  1  2  1  0
  3  1  1  0
  4  6  2  0
  4  1  1  0
  5  4  1  0
  6  7  1  0
  8  6  1  0
  8  9  1  0
 10  8  1  0
 11  8  1  0
 12 14  1  0
 12  1  1  0
 12 15  1  0
 13 12  1  0
 15 16  1  0
 15 17  1  0
 18 21  1  0
 18 15  1  0
 19 18  1  0
 20 18  1  0
M  END
>  <program>  (135) 
Gaussian 16, Revision A.03

>  <basis>  (135) 
6-311+G(2d,2p) (5D, 7F)

>  <File Format>  (135) 
g03

$$$$
/home/yang/projects/t99_calc/v1/qchem_data/combined/log_fchk/e1.log
     RDKit          3D

 18 17  0  0  1  0  0  0  0  0999 V2000
    2.7757   -0.1136    0.3053 C   0  0  0  0  0  0  0  0  0  0  0  0
    3.6749   -1.0141   -0.0736 F   0  0  0  0  0  0  0  0  0  0  0  0
    3.2335    1.0950    0.0089 F   0  0  0  0  0  0  0  0  0  0  0  0
    2.6096   -0.2043    1.6178 F   0  0  0  0  0  0  0  0  0  0  0  0
    1.4444   -0.4013   -0.4436 C   0  0  0  0  0  0  0  0  0  0  0  0
    1.6920   -0.3193   -1.7570 F   0  0  0  0  0  0  0  0  0  0  0  0
    1.0700   -1.6510   -0.1429 F   0  0  0  0  0  0  0  0  0  0  0  0
    0.6237    1.8193   -0.3625 F   0  0  0  0  0  0  0  0  0  0  0  0
   -0.0036    0.4756    1.2074 F   0  0  0  0  0  0  0  0  0  0  0  0
    0.2661    0.5536   -0.1000 C   0  0  0  0  0  0  0  0  0  0  0  0
   -0.7744    0.1647   -0.8833 O   0  0  0  0  0  0  0  0  0  0  0  0
   -2.0805    0.6028   -0.6526 C   0  0  1  0  0  0  0  0  0  0  0  0
   -2.8964   -0.4561    0.1129 C   0  0  0  0  0  0  0  0  0  0  0  0
   -2.1268    1.7688    0.0233 F   0  0  0  0  0  0  0  0  0  0  0  0
   -2.8577   -1.6053   -0.5595 F   0  0  0  0  0  0  0  0  0  0  0  0
   -2.5347    0.7342   -1.6353 H   0  0  0  0  0  0  0  0  0  0  0  0
   -2.4538   -0.6670    1.3425 F   0  0  0  0  0  0  0  0  0  0  0  0
   -4.1647   -0.0493    0.1812 F   0  0  0  0  0  0  0  0  0  0  0  0
  1  4  1  0
  2  1  1  0
  3  1  1  0
  5  7  1  0
  5 10  1  0
  5  1  1  0
  6  5  1  0
  8 10  1  0
 10  9  1  0
 11 12  1  0
 11 10  1  0
 12 16  1  6
 12 14  1  0
 12 13  1  0
 13 18  1  0
 13 17  1  0
 15 13  1  0
M  END
>  <program>  (136) 
Gaussian 16, Revision A.03

>  <basis>  (136) 
6-311+G(2d) (5D, 7F)

>  <File Format>  (136) 
g03

$$$$
/home/yang/projects/t99_calc/v1/qchem_data/combined/log_fchk/cf3co.log
     RDKit          3D

  6  5  0  0  0  0  0  0  0  0999 V2000
    0.3547   -0.0180   -0.0000 C   0  0  0  0  0  0  0  0  0  0  0  0
    0.9888   -0.4502   -1.0825 F   0  0  0  0  0  0  0  0  0  0  0  0
    0.9887   -0.4504    1.0825 F   0  0  0  0  0  0  0  0  0  0  0  0
    0.3614    1.3087    0.0002 F   0  0  0  0  0  0  0  0  0  0  0  0
   -1.0944   -0.6121   -0.0001 C   0  0  0  0  0  3  0  0  0  0  0  0
   -2.0763    0.0134   -0.0000 O   0  0  0  0  0  0  0  0  0  0  0  0
  1  4  1  0
  1  3  1  0
  2  1  1  0
  5  1  1  0
  5  6  2  0
M  RAD  1   5   2
M  END
>  <program>  (137) 
Gaussian 16, Revision A.03

>  <basis>  (137) 
6-311+G(2d,2p) (5D, 7F)

>  <File Format>  (137) 
g03

$$$$
/home/yang/projects/t99_calc/v1/qchem_data/combined/log_fchk/butylallyl.log
     RDKit          3D

 11 10  0  0  1  0  0  0  0  0999 V2000
   -2.1087    0.0463    0.0000 C   0  0  0  0  0  0  0  0  0  0  0  0
   -0.7999   -0.3518   -0.0001 C   0  0  0  0  0  0  0  0  0  0  0  0
   -2.4953    1.2911    0.0001 F   0  0  0  0  0  0  0  0  0  0  0  0
   -3.0998   -0.8014    0.0000 F   0  0  0  0  0  0  0  0  0  0  0  0
   -0.5917   -1.6702   -0.0001 F   0  0  0  0  0  0  0  0  0  0  0  0
    0.3234    0.4582   -0.0002 C   0  0  0  0  0  3  0  0  0  0  0  0
    1.7358   -0.0560    0.0000 C   0  0  0  0  0  0  0  0  0  0  0  0
    2.5876    0.9641   -0.0008 F   0  0  0  0  0  0  0  0  0  0  0  0
    1.9901   -0.8124   -1.0755 F   0  0  0  0  0  0  0  0  0  0  0  0
    0.1851    1.7753   -0.0001 F   0  0  0  0  0  0  0  0  0  0  0  0
    1.9903   -0.8110    1.0765 F   0  0  0  0  0  0  0  0  0  0  0  0
  1  4  1  0
  1  3  1  0
  2  5  1  0
  2  1  2  0
  6 10  1  0
  6  2  1  0
  6  7  1  0
  7 11  1  0
  8  7  1  0
  9  7  1  0
M  RAD  1   6   2
M  END
>  <program>  (138) 
Gaussian 16, Revision A.03

>  <basis>  (138) 
6-311+G(2d) (5D, 7F)

>  <File Format>  (138) 
g03

$$$$
/home/yang/projects/t99_calc/v1/qchem_data/combined/log_fchk/heptane1H.log
     RDKit          3D

 23 22  0  0  0  0  0  0  0  0999 V2000
    0.2157    0.5128    0.0655 C   0  0  0  0  0  0  0  0  0  0  0  0
    0.2396    1.1966    1.2169 F   0  0  0  0  0  0  0  0  0  0  0  0
    0.1686    1.3771   -0.9562 F   0  0  0  0  0  0  0  0  0  0  0  0
    1.5283   -0.3268   -0.0566 C   0  0  0  0  0  0  0  0  0  0  0  0
    1.4134   -1.4268    0.7002 F   0  0  0  0  0  0  0  0  0  0  0  0
    1.6780   -0.6917   -1.3361 F   0  0  0  0  0  0  0  0  0  0  0  0
    2.8006    0.4492    0.3983 C   0  0  0  0  0  0  0  0  0  0  0  0
    2.8298    0.4793    1.7421 F   0  0  0  0  0  0  0  0  0  0  0  0
    2.7424    1.7131   -0.0567 F   0  0  0  0  0  0  0  0  0  0  0  0
    4.1441   -0.1504   -0.0674 C   0  0  0  0  0  0  0  0  0  0  0  0
    4.3040    0.0198   -1.3889 F   0  0  0  0  0  0  0  0  0  0  0  0
    4.1783   -1.4661    0.2120 F   0  0  0  0  0  0  0  0  0  0  0  0
    4.9519    0.3558    0.4648 H   0  0  0  0  0  0  0  0  0  0  0  0
   -1.0758   -0.3678    0.0458 C   0  0  0  0  0  0  0  0  0  0  0  0
   -2.3643    0.4471   -0.2882 C   0  0  0  0  0  0  0  0  0  0  0  0
   -2.3902    0.6930   -1.6021 F   0  0  0  0  0  0  0  0  0  0  0  0
   -2.3462    1.6106    0.3772 F   0  0  0  0  0  0  0  0  0  0  0  0
   -1.2203   -0.9360    1.2500 F   0  0  0  0  0  0  0  0  0  0  0  0
   -0.9408   -1.3299   -0.8759 F   0  0  0  0  0  0  0  0  0  0  0  0
   -3.6889   -0.2838    0.0822 C   0  0  0  0  0  0  0  0  0  0  0  0
   -3.8477   -0.3380    1.3961 F   0  0  0  0  0  0  0  0  0  0  0  0
   -3.6934   -1.5170   -0.4094 F   0  0  0  0  0  0  0  0  0  0  0  0
   -4.7055    0.3897   -0.4404 F   0  0  0  0  0  0  0  0  0  0  0  0
  1  2  1  0
  3  1  1  0
  4  1  1  0
  4  7  1  0
  4  5  1  0
  6  4  1  0
  7  8  1  0
  9  7  1  0
 10 12  1  0
 10  7  1  0
 10 13  1  0
 11 10  1  0
 14  1  1  0
 14 18  1  0
 15 14  1  0
 15 20  1  0
 15 17  1  0
 16 15  1  0
 19 14  1  0
 20 21  1  0
 22 20  1  0
 23 20  1  0
M  END
>  <program>  (139) 
Gaussian 16, Revision A.03

>  <basis>  (139) 
6-311+G(2d,2p) (5D, 7F)

>  <File Format>  (139) 
g03

$$$$
/home/yang/projects/t99_calc/v1/qchem_data/combined/log_fchk/cf2oh2.log
     RDKit          3D

  7  6  0  0  0  0  0  0  0  0999 V2000
   -0.0000   -0.0018    0.0001 C   0  0  0  0  0  0  0  0  0  0  0  0
   -0.2017   -0.7936    1.0663 F   0  0  0  0  0  0  0  0  0  0  0  0
    0.2021   -0.7956   -1.0649 F   0  0  0  0  0  0  0  0  0  0  0  0
    1.1096    0.7325    0.2851 O   0  0  0  0  0  0  0  0  0  0  0  0
    1.2933    1.3020   -0.4655 H   0  0  0  0  0  0  0  0  0  0  0  0
   -1.1101    0.7313   -0.2864 O   0  0  0  0  0  0  0  0  0  0  0  0
   -1.2943    1.3018    0.4633 H   0  0  0  0  0  0  0  0  0  0  0  0
  1  4  1  0
  1  2  1  0
  3  1  1  0
  5  4  1  0
  6  1  1  0
  6  7  1  0
M  END
>  <program>  (140) 
Gaussian 16, Revision A.03

>  <basis>  (140) 
6-311+G(2d,2p) (5D, 7F)

>  <File Format>  (140) 
g03

$$$$
/home/yang/projects/t99_calc/v1/qchem_data/combined/log_fchk/cf2_2h2o_prod.log
     RDKit          3D

  9  7  0  0  0  0  0  0  0  0999 V2000
    0.5198   -0.0026   -0.1739 C   0  0  0  0  0  0  0  0  0  0  0  0
    1.4607    0.9255   -0.4846 F   0  0  0  0  0  0  0  0  0  0  0  0
    1.1820   -1.1834   -0.0896 F   0  0  0  0  0  0  0  0  0  0  0  0
   -0.0791    0.2972    1.0045 O   0  0  0  0  0  0  0  0  0  0  0  0
    0.5798    0.3002    1.7052 H   0  0  0  0  0  0  0  0  0  0  0  0
   -2.2043    0.0858    0.5025 H   0  0  0  0  0  0  0  0  0  0  0  0
   -2.6320   -0.1107   -0.3340 O   0  0  0  0  0  0  0  0  0  0  0  0
   -0.2334   -0.0498   -0.9550 H   0  0  0  0  0  0  0  0  0  0  0  0
   -3.3569    0.5089   -0.4061 H   0  0  0  0  0  0  0  0  0  0  0  0
  1  3  1  0
  1  4  1  0
  2  1  1  0
  4  5  1  0
  7  6  1  0
  8  1  1  0
  9  7  1  0
M  END
>  <program>  (141) 
Gaussian 16, Revision A.03

>  <basis>  (141) 
6-311+G(2d,2p) (5D, 7F)

>  <File Format>  (141) 
g03

$$$$
/home/yang/projects/t99_calc/v1/qchem_data/combined/log_fchk/c2f6.log
     RDKit          3D

  8  7  0  0  0  0  0  0  0  0999 V2000
    0.0000    0.0000    0.7749 C   0  0  0  0  0  0  0  0  0  0  0  0
    0.0000    0.0000   -0.7749 C   0  0  0  0  0  0  0  0  0  0  0  0
   -0.6239    1.0806    1.2241 F   0  0  0  0  0  0  0  0  0  0  0  0
    0.6239    1.0806   -1.2241 F   0  0  0  0  0  0  0  0  0  0  0  0
    1.2477   -0.0000    1.2241 F   0  0  0  0  0  0  0  0  0  0  0  0
    0.6239   -1.0806   -1.2241 F   0  0  0  0  0  0  0  0  0  0  0  0
   -0.6239   -1.0806    1.2241 F   0  0  0  0  0  0  0  0  0  0  0  0
   -1.2477   -0.0000   -1.2241 F   0  0  0  0  0  0  0  0  0  0  0  0
  1  3  1  0
  1  5  1  0
  1  7  1  0
  2  1  1  0
  4  2  1  0
  6  2  1  0
  8  2  1  0
M  END
>  <program>  (142) 
Gaussian 16, Revision A.03

>  <basis>  (142) 
6-311+G(2d) (5D, 7F)

>  <File Format>  (142) 
g03

$$$$
/home/yang/projects/t99_calc/v1/qchem_data/combined/log_fchk/tfal.log
     RDKit          3D

  7  6  0  0  0  0  0  0  0  0999 V2000
    0.5904    0.0161   -0.0002 C   0  0  0  0  0  0  0  0  0  0  0  0
   -0.9472    0.1561   -0.0002 C   0  0  0  0  0  0  0  0  0  0  0  0
   -1.5519    1.1589   -0.0000 O   0  0  0  0  0  0  0  0  0  0  0  0
    1.1548    1.2086   -0.0016 F   0  0  0  0  0  0  0  0  0  0  0  0
    0.9842   -0.6538   -1.0802 F   0  0  0  0  0  0  0  0  0  0  0  0
   -1.5054   -1.0489   -0.0002 F   0  0  0  0  0  0  0  0  0  0  0  0
    0.9838   -0.6509    1.0822 F   0  0  0  0  0  0  0  0  0  0  0  0
  1  2  1  0
  1  7  1  0
  2  6  1  0
  2  3  2  0
  4  1  1  0
  5  1  1  0
M  END
>  <program>  (143) 
Gaussian 16, Revision A.03

>  <basis>  (143) 
6-311+G(2d,2p) (5D, 7F)

>  <File Format>  (143) 
g03

$$$$
/home/yang/projects/t99_calc/v1/qchem_data/combined/log_fchk/c7f15oh.log
     RDKit          3D

 24 23  0  0  0  0  0  0  0  0999 V2000
   -1.3039   -0.3650    0.0522 C   0  0  0  0  0  0  0  0  0  0  0  0
   -1.4295   -0.8740    1.2838 F   0  0  0  0  0  0  0  0  0  0  0  0
   -1.1812   -1.3710   -0.8244 F   0  0  0  0  0  0  0  0  0  0  0  0
   -2.5874    0.4489   -0.3092 C   0  0  0  0  0  0  0  0  0  0  0  0
   -2.5310    1.6485    0.2888 F   0  0  0  0  0  0  0  0  0  0  0  0
   -2.6136    0.6237   -1.6348 F   0  0  0  0  0  0  0  0  0  0  0  0
   -0.0027    0.5020    0.0135 C   0  0  0  0  0  0  0  0  0  0  0  0
    1.2982   -0.3597   -0.0851 C   0  0  0  0  0  0  0  0  0  0  0  0
    2.5834    0.4254    0.3249 C   0  0  0  0  0  0  0  0  0  0  0  0
    3.9094   -0.2441   -0.1440 C   0  0  0  0  0  0  0  0  0  0  0  0
    0.0488    1.2393    1.1303 F   0  0  0  0  0  0  0  0  0  0  0  0
   -0.0460    1.3170   -1.0477 F   0  0  0  0  0  0  0  0  0  0  0  0
    1.4327   -0.7827   -1.3487 F   0  0  0  0  0  0  0  0  0  0  0  0
    1.1862   -1.4238    0.7205 F   0  0  0  0  0  0  0  0  0  0  0  0
    2.6255    0.5184    1.6580 F   0  0  0  0  0  0  0  0  0  0  0  0
    2.5461    1.6574   -0.2014 F   0  0  0  0  0  0  0  0  0  0  0  0
    4.0511   -0.1445   -1.4571 F   0  0  0  0  0  0  0  0  0  0  0  0
    3.9320   -1.5258    0.2015 F   0  0  0  0  0  0  0  0  0  0  0  0
    4.9271    0.3750    0.4405 F   0  0  0  0  0  0  0  0  0  0  0  0
   -3.9172   -0.2358    0.1221 C   0  0  0  0  0  0  0  0  0  0  0  0
   -3.8868   -1.5394   -0.2348 F   0  0  0  0  0  0  0  0  0  0  0  0
   -4.0239   -0.2142    1.4665 F   0  0  0  0  0  0  0  0  0  0  0  0
   -4.9313    0.4193   -0.4612 O   0  0  0  0  0  0  0  0  0  0  0  0
   -5.7660    0.0782   -0.1268 H   0  0  0  0  0  0  0  0  0  0  0  0
  1  2  1  0
  3  1  1  0
  4  1  1  0
  4 20  1  0
  4  5  1  0
  6  4  1  0
  7  1  1  0
  7 11  1  0
  8  7  1  0
  8  9  1  0
  8 14  1  0
  9 15  1  0
 10 18  1  0
 10  9  1  0
 10 19  1  0
 12  7  1  0
 13  8  1  0
 16  9  1  0
 17 10  1  0
 20 22  1  0
 21 20  1  0
 23 24  1  0
 23 20  1  0
M  END
>  <program>  (144) 
Gaussian 16, Revision A.03

>  <basis>  (144) 
6-311+G(2d,2p) (5D, 7F)

>  <File Format>  (144) 
g03

$$$$
/home/yang/projects/t99_calc/v1/qchem_data/combined/log_fchk/propane1H.log
     RDKit          3D

 11 10  0  0  0  0  0  0  0  0999 V2000
   -1.0339   -0.3719    0.0007 C   0  0  0  0  0  0  0  0  0  0  0  0
   -0.9672   -1.1386    1.0809 F   0  0  0  0  0  0  0  0  0  0  0  0
   -0.9688   -1.1395   -1.0794 F   0  0  0  0  0  0  0  0  0  0  0  0
    0.1132    0.6698   -0.0009 C   0  0  0  0  0  0  0  0  0  0  0  0
   -0.0283    1.4425    1.0906 F   0  0  0  0  0  0  0  0  0  0  0  0
   -0.0292    1.4404   -1.0934 F   0  0  0  0  0  0  0  0  0  0  0  0
    1.5525    0.1245   -0.0008 C   0  0  0  0  0  0  0  0  0  0  0  0
    1.7611   -0.6310   -1.0926 F   0  0  0  0  0  0  0  0  0  0  0  0
    1.7618   -0.6276    1.0938 F   0  0  0  0  0  0  0  0  0  0  0  0
    2.2468    0.9670   -0.0021 H   0  0  0  0  0  0  0  0  0  0  0  0
   -2.2003    0.2647    0.0010 F   0  0  0  0  0  0  0  0  0  0  0  0
  1 11  1  0
  1  2  1  0
  3  1  1  0
  4  7  1  0
  4  1  1  0
  4  5  1  0
  6  4  1  0
  7  9  1  0
  8  7  1  0
 10  7  1  0
M  END
>  <program>  (145) 
Gaussian 16, Revision A.03

>  <basis>  (145) 
6-311+G(2d,2p) (5D, 7F)

>  <File Format>  (145) 
g03

$$$$
/home/yang/projects/t99_calc/v1/qchem_data/combined/log_fchk/2_butene.log
     RDKit          3D

 12 11  0  0  0  0  0  0  0  0999 V2000
    1.9843   -0.0767    0.0000 C   0  0  0  0  0  0  0  0  0  0  0  0
    2.1018   -1.3959   -0.0003 F   0  0  0  0  0  0  0  0  0  0  0  0
    2.6076    0.4045   -1.0775 F   0  0  0  0  0  0  0  0  0  0  0  0
    0.5422    0.3810   -0.0001 C   0  0  0  0  0  0  0  0  0  0  0  0
    0.4638    1.7027   -0.0001 F   0  0  0  0  0  0  0  0  0  0  0  0
   -0.5423   -0.3811   -0.0000 C   0  0  0  0  0  0  0  0  0  0  0  0
   -0.4638   -1.7028   -0.0000 F   0  0  0  0  0  0  0  0  0  0  0  0
   -1.9843    0.0767    0.0000 C   0  0  0  0  0  0  0  0  0  0  0  0
   -2.6075   -0.4040   -1.0778 F   0  0  0  0  0  0  0  0  0  0  0  0
   -2.1016    1.3959    0.0002 F   0  0  0  0  0  0  0  0  0  0  0  0
   -2.6075   -0.4043    1.0777 F   0  0  0  0  0  0  0  0  0  0  0  0
    2.6073    0.4039    1.0779 F   0  0  0  0  0  0  0  0  0  0  0  0
  1 12  1  0
  2  1  1  0
  3  1  1  0
  4  5  1  0
  4  6  2  0
  4  1  1  0
  6  7  1  0
  6  8  1  0
  8 10  1  0
  8 11  1  0
  9  8  1  0
M  END
>  <program>  (146) 
Gaussian 16, Revision A.03

>  <basis>  (146) 
6-311+G(2d,2p) (5D, 7F)

>  <File Format>  (146) 
g03

$$$$
/home/yang/projects/t99_calc/v1/qchem_data/combined/log_fchk/pentene.log
     RDKit          3D

 15 14  0  0  0  0  0  0  0  0999 V2000
   -2.5924   -0.3784    0.0819 C   0  0  0  0  0  0  0  0  0  0  0  0
   -1.6381    0.5218   -0.1035 C   0  0  0  0  0  0  0  0  0  0  0  0
   -2.4841   -1.6496   -0.1774 F   0  0  0  0  0  0  0  0  0  0  0  0
   -3.7665   -0.0715    0.5575 F   0  0  0  0  0  0  0  0  0  0  0  0
   -1.8732    1.7900    0.2273 F   0  0  0  0  0  0  0  0  0  0  0  0
   -0.2579    0.2541   -0.6428 C   0  0  0  0  0  0  0  0  0  0  0  0
    0.7779    0.0091    0.4909 C   0  0  0  0  0  0  0  0  0  0  0  0
   -0.2678   -0.8269   -1.4413 F   0  0  0  0  0  0  0  0  0  0  0  0
    0.4128   -1.1048    1.1456 F   0  0  0  0  0  0  0  0  0  0  0  0
    0.1388    1.3175   -1.3639 F   0  0  0  0  0  0  0  0  0  0  0  0
    0.7276    1.0458    1.3406 F   0  0  0  0  0  0  0  0  0  0  0  0
    2.2562   -0.1664    0.0481 C   0  0  0  0  0  0  0  0  0  0  0  0
    2.7115    0.9404   -0.5217 F   0  0  0  0  0  0  0  0  0  0  0  0
    2.9939   -0.4262    1.1218 F   0  0  0  0  0  0  0  0  0  0  0  0
    2.3765   -1.1748   -0.8050 F   0  0  0  0  0  0  0  0  0  0  0  0
  1  4  1  0
  2  1  2  0
  2  5  1  0
  3  1  1  0
  6  2  1  0
  6  7  1  0
  7  9  1  0
  7 11  1  0
  8  6  1  0
 10  6  1  0
 12  7  1  0
 12 14  1  0
 13 12  1  0
 15 12  1  0
M  END
>  <program>  (147) 
Gaussian 16, Revision A.03

>  <basis>  (147) 
6-311+G(2d) (5D, 7F)

>  <File Format>  (147) 
g03

$$$$
/home/yang/projects/t99_calc/v1/qchem_data/combined/log_fchk/pfhxal.log
     RDKit          3D

 19 18  0  0  0  0  0  0  0  0999 V2000
    0.4399   -0.3952    0.0905 C   0  0  0  0  0  0  0  0  0  0  0  0
   -0.9136    0.3522   -0.1205 C   0  0  0  0  0  0  0  0  0  0  0  0
   -2.1611   -0.4758    0.3141 C   0  0  0  0  0  0  0  0  0  0  0  0
   -3.4591    0.0887   -0.3105 C   0  0  0  0  0  0  0  0  0  0  0  0
   -1.0551    0.6339   -1.4262 F   0  0  0  0  0  0  0  0  0  0  0  0
   -0.9022    1.4972    0.5713 F   0  0  0  0  0  0  0  0  0  0  0  0
    0.5751   -1.3091   -0.8780 F   0  0  0  0  0  0  0  0  0  0  0  0
    0.4086   -1.0168    1.2765 F   0  0  0  0  0  0  0  0  0  0  0  0
   -4.1349   -0.4553   -1.0963 O   0  0  0  0  0  0  0  0  0  0  0  0
   -2.0199   -1.7384   -0.0923 F   0  0  0  0  0  0  0  0  0  0  0  0
   -2.2771   -0.4509    1.6498 F   0  0  0  0  0  0  0  0  0  0  0  0
   -3.7198    1.2935    0.1846 F   0  0  0  0  0  0  0  0  0  0  0  0
    1.6754    0.5576    0.0682 C   0  0  0  0  0  0  0  0  0  0  0  0
    3.0360   -0.1741   -0.1302 C   0  0  0  0  0  0  0  0  0  0  0  0
    1.5402    1.4394   -0.9323 F   0  0  0  0  0  0  0  0  0  0  0  0
    1.7322    1.2161    1.2300 F   0  0  0  0  0  0  0  0  0  0  0  0
    3.1533   -1.1778    0.7307 F   0  0  0  0  0  0  0  0  0  0  0  0
    3.1438   -0.6430   -1.3639 F   0  0  0  0  0  0  0  0  0  0  0  0
    4.0178    0.6916    0.0832 F   0  0  0  0  0  0  0  0  0  0  0  0
  1  8  1  0
  2  1  1  0
  2  3  1  0
  2  6  1  0
  3 11  1  0
  4 12  1  0
  4  3  1  0
  5  2  1  0
  7  1  1  0
  9  4  2  0
 10  3  1  0
 13  1  1  0
 13 16  1  0
 14 13  1  0
 14 19  1  0
 14 17  1  0
 15 13  1  0
 18 14  1  0
M  END
>  <program>  (148) 
Gaussian 16, Revision A.03

>  <basis>  (148) 
6-311+G(2d,2p) (5D, 7F)

>  <File Format>  (148) 
g03

$$$$
/home/yang/projects/t99_calc/v1/qchem_data/combined/log_fchk/cf2oh.log
     RDKit          3D

  5  4  0  0  0  0  0  0  0  0999 V2000
   -0.3395    1.2255    0.0752 F   0  0  0  0  0  0  0  0  0  0  0  0
    1.1999   -0.4145    0.1079 O   0  0  0  0  0  0  0  0  0  0  0  0
    1.8613    0.2209   -0.1743 H   0  0  0  0  0  0  0  0  0  0  0  0
   -0.0042   -0.0136   -0.3153 C   0  0  0  0  0  3  0  0  0  0  0  0
   -0.9311   -0.8726    0.0584 F   0  0  0  0  0  0  0  0  0  0  0  0
  3  2  1  0
  4  5  1  0
  4  1  1  0
  4  2  1  0
M  RAD  1   4   2
M  END
>  <program>  (149) 
Gaussian 16, Revision A.03

>  <basis>  (149) 
6-311+G(2d,2p) (5D, 7F)

>  <File Format>  (149) 
g03

$$$$
/home/yang/projects/t99_calc/v1/qchem_data/combined/log_fchk/octane1H.log
     RDKit          3D

 26 25  0  0  0  0  0  0  0  0999 V2000
   -0.8539   -0.4602    0.1774 C   0  0  0  0  0  0  0  0  0  0  0  0
   -0.9083   -0.9740    1.4129 F   0  0  0  0  0  0  0  0  0  0  0  0
   -0.7412   -1.4586   -0.7080 F   0  0  0  0  0  0  0  0  0  0  0  0
   -2.1823    0.3109   -0.1127 C   0  0  0  0  0  0  0  0  0  0  0  0
   -2.1282    1.5107    0.4817 F   0  0  0  0  0  0  0  0  0  0  0  0
   -2.2893    0.4843   -1.4360 F   0  0  0  0  0  0  0  0  0  0  0  0
   -3.4506   -0.4331    0.4025 C   0  0  0  0  0  0  0  0  0  0  0  0
   -3.5286   -0.2792    1.7359 F   0  0  0  0  0  0  0  0  0  0  0  0
   -3.3435   -1.7452    0.1286 F   0  0  0  0  0  0  0  0  0  0  0  0
   -4.7910    0.0560   -0.1855 C   0  0  0  0  0  0  0  0  0  0  0  0
   -4.8968   -0.2968   -1.4761 F   0  0  0  0  0  0  0  0  0  0  0  0
   -4.8703    1.3956   -0.0899 F   0  0  0  0  0  0  0  0  0  0  0  0
   -5.6044   -0.3984    0.3836 H   0  0  0  0  0  0  0  0  0  0  0  0
    0.4133    0.4508    0.0793 C   0  0  0  0  0  0  0  0  0  0  0  0
    1.7370   -0.3656   -0.0811 C   0  0  0  0  0  0  0  0  0  0  0  0
    1.8263   -0.7855   -1.3495 F   0  0  0  0  0  0  0  0  0  0  0  0
    1.6984   -1.4318    0.7288 F   0  0  0  0  0  0  0  0  0  0  0  0
    0.4915    1.1902    1.1926 F   0  0  0  0  0  0  0  0  0  0  0  0
    0.2893    1.2617   -0.9787 F   0  0  0  0  0  0  0  0  0  0  0  0
    3.0113    0.4648    0.2691 C   0  0  0  0  0  0  0  0  0  0  0  0
    3.1112    0.5607    1.5989 F   0  0  0  0  0  0  0  0  0  0  0  0
    2.9049    1.6939   -0.2544 F   0  0  0  0  0  0  0  0  0  0  0  0
    4.3373   -0.1573   -0.2612 C   0  0  0  0  0  0  0  0  0  0  0  0
    4.4214   -1.4370    0.0822 F   0  0  0  0  0  0  0  0  0  0  0  0
    5.3579    0.4985    0.2758 F   0  0  0  0  0  0  0  0  0  0  0  0
    4.4139   -0.0541   -1.5794 F   0  0  0  0  0  0  0  0  0  0  0  0
  1  2  1  0
  3  1  1  0
  4  1  1  0
  4  7  1  0
  4  5  1  0
  6  4  1  0
  7  8  1  0
  9  7  1  0
 10 12  1  0
 10 13  1  0
 10  7  1  0
 11 10  1  0
 14  1  1  0
 14 18  1  0
 15 14  1  0
 15 20  1  0
 15 17  1  0
 16 15  1  0
 19 14  1  0
 20 21  1  0
 22 20  1  0
 23 24  1  0
 23 20  1  0
 23 25  1  0
 26 23  1  0
M  END
>  <program>  (150) 
Gaussian 16, Revision A.03

>  <basis>  (150) 
6-311+G(2d,2p) (5D, 7F)

>  <File Format>  (150) 
g03

$$$$
/home/yang/projects/t99_calc/v1/qchem_data/combined/log_fchk/allene.log
     RDKit          3D

  7  6  0  0  0  0  0  0  0  0999 V2000
   -1.2908    0.0002    0.0002 C   0  0  0  0  0  0  0  0  0  0  0  0
   -0.0000    0.0001    0.0002 C   0  0  0  0  0  0  0  0  0  0  0  0
   -2.0491    0.7585   -0.7569 F   0  0  0  0  0  0  0  0  0  0  0  0
   -2.0492   -0.7586    0.7568 F   0  0  0  0  0  0  0  0  0  0  0  0
    1.2908   -0.0002    0.0002 C   0  0  0  0  0  0  0  0  0  0  0  0
    2.0490   -0.7579   -0.7576 F   0  0  0  0  0  0  0  0  0  0  0  0
    2.0493    0.7579    0.7574 F   0  0  0  0  0  0  0  0  0  0  0  0
  1  4  1  0
  2  5  2  0
  2  1  2  0
  3  1  1  0
  5  7  1  0
  6  5  1  0
M  END
>  <program>  (151) 
Gaussian 16, Revision A.03

>  <basis>  (151) 
6-311+G(2d,2p) (5D, 7F)

>  <File Format>  (151) 
g03

$$$$
